<?xml version="1.0" encoding="UTF-8"?>
<!-- Generated by scripts/init_data_real.py - verankertes Modell
     Basler Str. × Obere Riehenstr., Lörrach-Stetten.
     Scenario: high (total ≈ 918 veh/h at peak hour 16:00)
     Calibration: DTV 8037 Kfz/24h × hourly profile [BASt 2023 Zst 8570 (gemessen)]
                  × DIR_SPLIT × turn fractions.
-->
<routes>
    <vType id="car" vClass="passenger" length="5.0" minGap="2.5"
           maxSpeed="13.89" accel="2.6" decel="4.5" sigma="0.5"/>

    <!-- Routes (12 OD pairs across the 4-arm intersection) -->
    <route id="N_S" edges="N2C C2S"/>
    <route id="N_E" edges="N2C C2E"/>
    <route id="N_W" edges="N2C C2W"/>
    <route id="S_N" edges="S2C C2N"/>
    <route id="S_E" edges="S2C C2E"/>
    <route id="S_W" edges="S2C C2W"/>
    <route id="E_W" edges="E2C C2W"/>
    <route id="E_S" edges="E2C C2S"/>
    <route id="E_N" edges="E2C C2N"/>
    <route id="W_E" edges="W2C C2E"/>
    <route id="W_N" edges="W2C C2N"/>
    <route id="W_S" edges="W2C C2S"/>

    <!-- Flows (constant rate over 3600s episode) -->
    <flow id="N_S_flow" type="car" route="N_S" begin="0" end="3600" vehsPerHour="165" departLane="best" departSpeed="max"/>
    <flow id="N_E_flow" type="car" route="N_E" begin="0" end="3600" vehsPerHour="55" departLane="best" departSpeed="max"/>
    <flow id="N_W_flow" type="car" route="N_W" begin="0" end="3600" vehsPerHour="55" departLane="best" departSpeed="max"/>
    <flow id="S_N_flow" type="car" route="S_N" begin="0" end="3600" vehsPerHour="165" departLane="best" departSpeed="max"/>
    <flow id="S_E_flow" type="car" route="S_E" begin="0" end="3600" vehsPerHour="55" departLane="best" departSpeed="max"/>
    <flow id="S_W_flow" type="car" route="S_W" begin="0" end="3600" vehsPerHour="55" departLane="best" departSpeed="max"/>
    <flow id="E_W_flow" type="car" route="E_W" begin="0" end="3600" vehsPerHour="110" departLane="best" departSpeed="max"/>
    <flow id="E_S_flow" type="car" route="E_S" begin="0" end="3600" vehsPerHour="37" departLane="best" departSpeed="max"/>
    <flow id="E_N_flow" type="car" route="E_N" begin="0" end="3600" vehsPerHour="37" departLane="best" departSpeed="max"/>
    <flow id="W_E_flow" type="car" route="W_E" begin="0" end="3600" vehsPerHour="110" departLane="best" departSpeed="max"/>
    <flow id="W_N_flow" type="car" route="W_N" begin="0" end="3600" vehsPerHour="37" departLane="best" departSpeed="max"/>
    <flow id="W_S_flow" type="car" route="W_S" begin="0" end="3600" vehsPerHour="37" departLane="best" departSpeed="max"/>
</routes>
