<?xml version="1.0" encoding="UTF-8"?>
<!-- Generated by scripts/init_data.py - corridor 772 veh/h rush-hour -->
<routes>
    <vType id="car" vClass="passenger" length="5.0" minGap="2.5"
           maxSpeed="13.89" accel="2.6" decel="4.5" sigma="0.5"/>

    <!-- Corridor routes -->
    <route id="cor_N_S" edges="N_Jn Jn_C C_Js Js_S"/>
    <route id="cor_S_N" edges="S_Js Js_C C_Jn Jn_N"/>
    <route id="cor_E_W" edges="E_C C_W"/>
    <route id="cor_W_E" edges="W_C C_E"/>
    <route id="cor_Wn_En" edges="Wn_Jn Jn_En"/>
    <route id="cor_En_Wn" edges="En_Jn Jn_Wn"/>
    <route id="cor_Ws_Es" edges="Ws_Js Js_Es"/>
    <route id="cor_Es_Ws" edges="Es_Js Js_Ws"/>
    <route id="cor_N_Wn" edges="N_Jn Jn_Wn"/>
    <route id="cor_N_En" edges="N_Jn Jn_En"/>
    <route id="cor_S_Ws" edges="S_Js Js_Ws"/>
    <route id="cor_S_Es" edges="S_Js Js_Es"/>
    <route id="cor_Wn_S" edges="Wn_Jn Jn_C C_Js Js_S"/>
    <route id="cor_En_S" edges="En_Jn Jn_C C_Js Js_S"/>
    <route id="cor_Ws_N" edges="Ws_Js Js_C C_Jn Jn_N"/>
    <route id="cor_Es_N" edges="Es_Js Js_C C_Jn Jn_N"/>
    <route id="cor_N_E" edges="N_Jn Jn_C C_E"/>
    <route id="cor_N_W" edges="N_Jn Jn_C C_W"/>
    <route id="cor_S_E" edges="S_Js Js_C C_E"/>
    <route id="cor_S_W" edges="S_Js Js_C C_W"/>
    <route id="cor_E_N" edges="E_C C_Jn Jn_N"/>
    <route id="cor_E_S" edges="E_C C_Js Js_S"/>
    <route id="cor_W_N" edges="W_C C_Jn Jn_N"/>
    <route id="cor_W_S" edges="W_C C_Js Js_S"/>

    <!-- Flows (rush-hour 17:00-18:00) -->
    <flow id="cor_N_S_flow" type="car" route="cor_N_S" begin="0" end="3600" vehsPerHour="162" departLane="best" departSpeed="max"/>
    <flow id="cor_S_N_flow" type="car" route="cor_S_N" begin="0" end="3600" vehsPerHour="162" departLane="best" departSpeed="max"/>
    <flow id="cor_E_W_flow" type="car" route="cor_E_W" begin="0" end="3600" vehsPerHour="154" departLane="best" departSpeed="max"/>
    <flow id="cor_W_E_flow" type="car" route="cor_W_E" begin="0" end="3600" vehsPerHour="154" departLane="best" departSpeed="max"/>
    <flow id="cor_Wn_En_flow" type="car" route="cor_Wn_En" begin="0" end="3600" vehsPerHour="46" departLane="best" departSpeed="max"/>
    <flow id="cor_En_Wn_flow" type="car" route="cor_En_Wn" begin="0" end="3600" vehsPerHour="46" departLane="best" departSpeed="max"/>
    <flow id="cor_Ws_Es_flow" type="car" route="cor_Ws_Es" begin="0" end="3600" vehsPerHour="46" departLane="best" departSpeed="max"/>
    <flow id="cor_Es_Ws_flow" type="car" route="cor_Es_Ws" begin="0" end="3600" vehsPerHour="46" departLane="best" departSpeed="max"/>
    <flow id="cor_N_Wn_flow" type="car" route="cor_N_Wn" begin="0" end="3600" vehsPerHour="14" departLane="best" departSpeed="max"/>
    <flow id="cor_N_En_flow" type="car" route="cor_N_En" begin="0" end="3600" vehsPerHour="14" departLane="best" departSpeed="max"/>
    <flow id="cor_S_Ws_flow" type="car" route="cor_S_Ws" begin="0" end="3600" vehsPerHour="14" departLane="best" departSpeed="max"/>
    <flow id="cor_S_Es_flow" type="car" route="cor_S_Es" begin="0" end="3600" vehsPerHour="14" departLane="best" departSpeed="max"/>
    <flow id="cor_Wn_S_flow" type="car" route="cor_Wn_S" begin="0" end="3600" vehsPerHour="14" departLane="best" departSpeed="max"/>
    <flow id="cor_En_S_flow" type="car" route="cor_En_S" begin="0" end="3600" vehsPerHour="14" departLane="best" departSpeed="max"/>
    <flow id="cor_Ws_N_flow" type="car" route="cor_Ws_N" begin="0" end="3600" vehsPerHour="14" departLane="best" departSpeed="max"/>
    <flow id="cor_Es_N_flow" type="car" route="cor_Es_N" begin="0" end="3600" vehsPerHour="14" departLane="best" departSpeed="max"/>
    <flow id="cor_N_E_flow" type="car" route="cor_N_E" begin="0" end="3600" vehsPerHour="23" departLane="best" departSpeed="max"/>
    <flow id="cor_N_W_flow" type="car" route="cor_N_W" begin="0" end="3600" vehsPerHour="23" departLane="best" departSpeed="max"/>
    <flow id="cor_S_E_flow" type="car" route="cor_S_E" begin="0" end="3600" vehsPerHour="23" departLane="best" departSpeed="max"/>
    <flow id="cor_S_W_flow" type="car" route="cor_S_W" begin="0" end="3600" vehsPerHour="23" departLane="best" departSpeed="max"/>
    <flow id="cor_E_N_flow" type="car" route="cor_E_N" begin="0" end="3600" vehsPerHour="23" departLane="best" departSpeed="max"/>
    <flow id="cor_E_S_flow" type="car" route="cor_E_S" begin="0" end="3600" vehsPerHour="23" departLane="best" departSpeed="max"/>
    <flow id="cor_W_N_flow" type="car" route="cor_W_N" begin="0" end="3600" vehsPerHour="23" departLane="best" departSpeed="max"/>
    <flow id="cor_W_S_flow" type="car" route="cor_W_S" begin="0" end="3600" vehsPerHour="23" departLane="best" departSpeed="max"/>
</routes>
