<?xml version="1.0" encoding="UTF-8"?>
<!-- Generated by scripts/init_data_osm.py - OSM-imported network
     Basler Str. × Obere Riehenstr., Lörrach-Stetten.
     Scenario: low (391 trips over 3600s,
     randomTrips.py period=4.83s, validate, fringe-factor 5).
     Calibration target: BASt 2023 Zst 8570 peak-hour ≈ 680 veh/h
     (16:00 share = 8.46 % × DTV 8037 Kfz/24h).
     TLS under control: OSM ID 1628110071. -->
<routes xmlns:xsi="http://www.w3.org/2001/XMLSchema-instance" xsi:noNamespaceSchemaLocation="http://sumo.dlr.de/xsd/routes_file.xsd">
    <vType id="veh_passenger" vClass="passenger"/>
    <vehicle id="veh0" type="veh_passenger" depart="0.00">
        <route edges="137464958#0 -149866195#1 1124727533#0 1124727534#0 1124727534#1 773647503#0 773647503#1 -773647503#1 -773647503#0 -1124727534#1"/>
    </vehicle>
    <vehicle id="veh3" type="veh_passenger" depart="14.49">
        <route edges="36985290#0 1290725373 -137464958#1"/>
    </vehicle>
    <vehicle id="veh4" type="veh_passenger" depart="19.32">
        <route edges="-42673587#4 -137474089#1 137474089#0 42673585 42673587#5 1161106478 36985290#0 1290725373 1124727537 1124727538 -1124727538 -1124727537"/>
    </vehicle>
    <vehicle id="veh5" type="veh_passenger" depart="24.15">
        <route edges="-25931296#3 126630184"/>
    </vehicle>
    <vehicle id="veh6" type="veh_passenger" depart="28.98">
        <route edges="-1032031479 -183169793#2 -183169793#1"/>
    </vehicle>
    <vehicle id="veh10" type="veh_passenger" depart="48.30">
        <route edges="31530089 -83288880#1 -83288880#0 878342716 31530088"/>
    </vehicle>
    <vehicle id="veh13" type="veh_passenger" depart="62.79">
        <route edges="-1124727538 -1124727537 -137464958#1"/>
    </vehicle>
    <vehicle id="veh16" type="veh_passenger" depart="77.28">
        <route edges="-773647503#2 773647503#2"/>
    </vehicle>
    <vehicle id="veh18" type="veh_passenger" depart="86.94">
        <route edges="31585976#0 25931296#0"/>
    </vehicle>
    <vehicle id="veh21" type="veh_passenger" depart="101.43">
        <route edges="-25931296#3 -25931296#0 31585976#1 773647502#1 -1161106478 -42673587#6 32500577#0 32500577#1 32500577#3 32500577#4 -32500577#5 -32500577#3"/>
    </vehicle>
    <vehicle id="veh23" type="veh_passenger" depart="111.09">
        <route edges="-1124727538 -1124727537 -149866195#1 -36985290#2 -1161106478 -42673587#6 32500577#0 32500577#1 32500577#3 32500577#4 -32500577#5 -32500577#3 -32500577#1 -32500577#0"/>
    </vehicle>
    <vehicle id="veh24" type="veh_passenger" depart="115.92">
        <route edges="137464958#0 -149866195#1 -36985290#2 -1124727529#2 -773647502#0 -31585976#0 31530089 -83288880#1 -83288880#0 -840714840"/>
    </vehicle>
    <vehicle id="veh31" type="veh_passenger" depart="149.73">
        <route edges="-878342716 878342716 31530088"/>
    </vehicle>
    <vehicle id="veh32" type="veh_passenger" depart="154.56">
        <route edges="31585976#0 31585976#1 773647502#1 -1161106478 -42673587#6 32500577#0 32500577#1 32500577#3 32500577#4"/>
    </vehicle>
    <vehicle id="veh33" type="veh_passenger" depart="159.39">
        <route edges="-25931296#3 -25931296#0 31585976#1 773647502#1 36985290#0 1290725373 1124727537 1124727538 -1124727538 -1124727537"/>
    </vehicle>
    <vehicle id="veh34" type="veh_passenger" depart="164.22">
        <route edges="-32500577#1 -32500577#0 42673587#5 1161106478 -1124727529#2 -773647502#0 -31585976#0"/>
    </vehicle>
    <vehicle id="veh35" type="veh_passenger" depart="169.05">
        <route edges="-25931296#0 31585976#1 773647502#1 36985290#0 1124727533#0 1124727534#0 1124727534#1 773647503#0 773647503#1 773647503#2"/>
    </vehicle>
    <vehicle id="veh36" type="veh_passenger" depart="173.88">
        <route edges="32500577#1 32500577#3 32500577#4 -32500577#5 -32500577#3 -32500577#1 -32500577#0 42673587#5 1161106478 -1161106478 -42673587#6"/>
    </vehicle>
    <vehicle id="veh37" type="veh_passenger" depart="178.71">
        <route edges="137464958#0 -149866195#1 -36985290#2 -1124727529#2 -773647502#0 -31585976#0 31530089 -83288880#1 -83288880#0 -840714840"/>
    </vehicle>
    <vehicle id="veh38" type="veh_passenger" depart="183.54">
        <route edges="773647502#1 36985290#0 1290725373 1124727537 1124727538"/>
    </vehicle>
    <vehicle id="veh40" type="veh_passenger" depart="193.20">
        <route edges="1124727533#0 1124727534#0 1124727534#1 773647503#0 773647503#1 -773647503#1 -773647503#0 -1124727534#1 -1124727534#0 -200606082 -36985290#2 -1124727529#2 -773647502#0 -31585976#0"/>
    </vehicle>
    <vehicle id="veh41" type="veh_passenger" depart="198.03">
        <route edges="1124727534#1 773647503#0 773647503#1 -773647503#1 -773647503#0 -1124727534#1 -1124727534#0 -200606082 -36985290#2 -1124727529#2 -773647502#0 -31585976#0 31530089 59571718"/>
    </vehicle>
    <vehicle id="veh44" type="veh_passenger" depart="212.52">
        <route edges="-1124727538 -1124727537 -149866195#1 -36985290#2 -1161106478"/>
    </vehicle>
    <vehicle id="veh45" type="veh_passenger" depart="217.35">
        <route edges="-1124727538 -1124727537 -149866195#1 -36985290#2 -1124727529#2 -773647502#0 -31585976#0 31585976#0 25931296#0 25931296#1"/>
    </vehicle>
    <vehicle id="veh46" type="veh_passenger" depart="222.18">
        <route edges="25931296#0 -25931296#0 31585976#1 773647502#1 36985290#0 1124727533#0"/>
    </vehicle>
    <vehicle id="veh47" type="veh_passenger" depart="227.01">
        <route edges="-1124727534#1 -1124727534#0 -200606082 -36985290#2 -1124727529#2 -773647502#0 -31585976#0 31530089 -83288880#1 -83288880#0 -840714840"/>
    </vehicle>
    <vehicle id="veh53" type="veh_passenger" depart="255.99">
        <route edges="-1124727538 -1124727537 -149866195#1 1124727533#0 1124727534#0 1124727534#1"/>
    </vehicle>
    <vehicle id="veh55" type="veh_passenger" depart="265.65">
        <route edges="32500577#1 32500577#3 32500577#4 -32500577#5 -32500577#3 -32500577#1 -32500577#0 42673587#5 1161106478 -1124727529#2 -773647502#0 -31585976#0"/>
    </vehicle>
    <vehicle id="veh57" type="veh_passenger" depart="275.31">
        <route edges="773647502#1 -1124727529#2 -773647502#0 -31585976#0 31530089 59571718"/>
    </vehicle>
    <vehicle id="veh58" type="veh_passenger" depart="280.14">
        <route edges="-31585976#0 31585976#0 25931296#0 25931296#1"/>
    </vehicle>
    <vehicle id="veh64" type="veh_passenger" depart="309.12">
        <route edges="32500577#3 32500577#4 -32500577#5 -32500577#3 -32500577#1 -32500577#0 42673587#5 1161106478 36985290#0 1124727533#0 1124727534#0 1124727534#1 773647503#0 773647503#1 35142095#0"/>
    </vehicle>
    <vehicle id="veh65" type="veh_passenger" depart="313.95">
        <route edges="-32500577#0 42673587#5 1161106478 -1124727529#2 -773647502#0 -31585976#0 31585976#0 25931296#0 126630184 -126630184"/>
    </vehicle>
    <vehicle id="veh66" type="veh_passenger" depart="318.78">
        <route edges="32500577#1 32500577#3 32500577#4 -32500577#5 -32500577#3 -32500577#1 -32500577#0 42673587#5 1161106478 36985290#0 1124727533#0 1124727534#0 1124727534#1 773647503#0 773647503#1 773647503#2"/>
    </vehicle>
    <vehicle id="veh67" type="veh_passenger" depart="323.61">
        <route edges="-1124727538 -1124727537 1124727537 1124727538"/>
    </vehicle>
    <vehicle id="veh68" type="veh_passenger" depart="328.44">
        <route edges="-1124727537 -149866195#1 -36985290#2 -1161106478 -42673587#6 32500577#0 32500577#1 32500577#3 32500577#4"/>
    </vehicle>
    <vehicle id="veh71" type="veh_passenger" depart="342.93">
        <route edges="-31530088 -878342716 878342715 83288880#1 59571718"/>
    </vehicle>
    <vehicle id="veh74" type="veh_passenger" depart="357.42">
        <route edges="-200606082 -36985290#2 -1161106478 -42673587#6 -42673587#4"/>
    </vehicle>
    <vehicle id="veh77" type="veh_passenger" depart="371.91">
        <route edges="-1153453441 -183169793#1"/>
    </vehicle>
    <vehicle id="veh80" type="veh_passenger" depart="386.40">
        <route edges="-1124727537 -149866195#1 -36985290#2 -1124727529#2 -773647502#0 -31585976#0 31585976#0 25931296#0 25931296#1"/>
    </vehicle>
    <vehicle id="veh81" type="veh_passenger" depart="391.23">
        <route edges="-25931296#3 -25931296#0 -31585976#0 31530089 59571718"/>
    </vehicle>
    <vehicle id="veh82" type="veh_passenger" depart="396.06">
        <route edges="31585976#1 773647502#1 36985290#0 1290725373 -137464958#1"/>
    </vehicle>
    <vehicle id="veh84" type="veh_passenger" depart="405.72">
        <route edges="-25931296#3 -25931296#0 31585976#1 773647502#1 -1161106478 -42673587#6 -42673587#4 -137474089#1"/>
    </vehicle>
    <vehicle id="veh86" type="veh_passenger" depart="415.38">
        <route edges="-773647502#0 -31585976#0 31585976#0 31585976#1 773647502#1 -1161106478 -42673587#6 32500577#0 32500577#1 32500577#3 32500577#4"/>
    </vehicle>
    <vehicle id="veh88" type="veh_passenger" depart="425.04">
        <route edges="-1124727538 -1124727537 -149866195#1 1124727533#0 1124727534#0"/>
    </vehicle>
    <vehicle id="veh89" type="veh_passenger" depart="429.87">
        <route edges="-42673587#6 42673587#5 1161106478 36985290#0 1290725373 1124727537 1124727538"/>
    </vehicle>
    <vehicle id="veh92" type="veh_passenger" depart="444.36">
        <route edges="-35142095#1 -773647503#1"/>
    </vehicle>
    <vehicle id="veh93" type="veh_passenger" depart="449.19">
        <route edges="31585976#1 773647502#1 36985290#0 1124727533#0 1124727534#0 1124727534#1 773647503#0 773647503#1 -773647503#1 -773647503#0 -1124727534#1 -1124727534#0 -200606082"/>
    </vehicle>
    <vehicle id="veh95" type="veh_passenger" depart="458.85">
        <route edges="-42673587#4 -137474089#1 137474089#0 42673585 32500577#0 32500577#1 32500577#3 32500577#4 -32500577#5 -32500577#3 -32500577#1 -32500577#0"/>
    </vehicle>
    <vehicle id="veh96" type="veh_passenger" depart="463.68">
        <route edges="-25931296#3 -25931296#0 31585976#1 773647502#1 36985290#0 1124727533#0 1124727534#0 1124727534#1 773647503#0"/>
    </vehicle>
    <vehicle id="veh103" type="veh_passenger" depart="497.49">
        <route edges="-35142095#1 -773647503#1 -773647503#0 -1124727534#1 -1124727534#0 -200606082 -36985290#2 -1124727529#2 -773647502#0 -31585976#0 31585976#0 25931296#0 126630184 -126630184"/>
    </vehicle>
    <vehicle id="veh104" type="veh_passenger" depart="502.32">
        <route edges="-35142095#1 -773647503#1 -773647503#0 -1124727534#1 -1124727534#0 -200606082 -36985290#2 -1124727529#2 -773647502#0 -31585976#0 31530089 -83288880#1 -83288880#0 878342715"/>
    </vehicle>
    <vehicle id="veh107" type="veh_passenger" depart="516.81">
        <route edges="840714840 878342716"/>
    </vehicle>
    <vehicle id="veh113" type="veh_passenger" depart="545.79">
        <route edges="-773647503#2 -773647503#1 -773647503#0 -1124727534#1 -1124727534#0 -200606082 -36985290#2 -1161106478 -42673587#6 -42673587#4 -137474089#1 137474089#0 42673585"/>
    </vehicle>
    <vehicle id="veh116" type="veh_passenger" depart="560.28">
        <route edges="1161106478 -1124727529#2 -773647502#0 -31585976#0 31530089 -83288880#1 -83288880#0 878342716 31530088"/>
    </vehicle>
    <vehicle id="veh117" type="veh_passenger" depart="565.11">
        <route edges="-25931296#3 -25931296#0 31585976#1 773647502#1 -1161106478 -42673587#6 -42673587#4 -137474089#1"/>
    </vehicle>
    <vehicle id="veh118" type="veh_passenger" depart="569.94">
        <route edges="36985290#0 1124727533#0 1124727534#0 1124727534#1 773647503#0 773647503#1 -773647503#1 -773647503#0 -1124727534#1 -1124727534#0 -200606082"/>
    </vehicle>
    <vehicle id="veh119" type="veh_passenger" depart="574.77">
        <route edges="1161106478 -1124727529#2 -773647502#0 -31585976#0 31585976#0 25931296#0 25931296#1"/>
    </vehicle>
    <vehicle id="veh121" type="veh_passenger" depart="584.43">
        <route edges="-773647503#2 773647503#2"/>
    </vehicle>
    <vehicle id="veh122" type="veh_passenger" depart="589.26">
        <route edges="-25931296#0 -31585976#0 31530089"/>
    </vehicle>
    <vehicle id="veh123" type="veh_passenger" depart="594.09">
        <route edges="-25931296#3 -25931296#0 -31585976#0 31530089 -83288880#1 -83288880#0 -840714840"/>
    </vehicle>
    <vehicle id="veh124" type="veh_passenger" depart="598.92">
        <route edges="137474089#0 42673585 42673587#5 1161106478 36985290#0 -36985290#2"/>
    </vehicle>
    <vehicle id="veh125" type="veh_passenger" depart="603.75">
        <route edges="-32500577#1 -32500577#0 32500577#0 32500577#1 32500577#3"/>
    </vehicle>
    <vehicle id="veh126" type="veh_passenger" depart="608.58">
        <route edges="-1124727537 1124727537 1124727538"/>
    </vehicle>
    <vehicle id="veh127" type="veh_passenger" depart="613.41">
        <route edges="878342716"/>
    </vehicle>
    <vehicle id="veh130" type="veh_passenger" depart="627.90">
        <route edges="32500577#3 32500577#4 -32500577#5 -32500577#3 -32500577#1 -32500577#0 42673587#5 1161106478 -1124727529#2 -773647502#0 -31585976#0 31530089 59571718"/>
    </vehicle>
    <vehicle id="veh132" type="veh_passenger" depart="637.56">
        <route edges="31585976#0 -31585976#0 31530089 -83288880#1 -83288880#0 878342716 31530088"/>
    </vehicle>
    <vehicle id="veh133" type="veh_passenger" depart="642.39">
        <route edges="1290725373 -149866195#1 -36985290#2 -1124727529#2 -773647502#0 -31585976#0 31530089 -83288880#1 -83288880#0 878342715"/>
    </vehicle>
    <vehicle id="veh134" type="veh_passenger" depart="647.22">
        <route edges="137464958#0 -149866195#1 -36985290#2 -1124727529#2"/>
    </vehicle>
    <vehicle id="veh135" type="veh_passenger" depart="652.05">
        <route edges="31585976#0 31585976#1 773647502#1 36985290#0 -36985290#2"/>
    </vehicle>
    <vehicle id="veh136" type="veh_passenger" depart="656.88">
        <route edges="137474089#0 42673585 42673587#5 1161106478 36985290#0 1124727533#0 1124727534#0 1124727534#1 773647503#0 773647503#1 773647503#2"/>
    </vehicle>
    <vehicle id="veh137" type="veh_passenger" depart="661.71">
        <route edges="-126630184 -25931296#0 31585976#1 773647502#1 -1161106478 -42673587#6 -42673587#4 -137474089#1"/>
    </vehicle>
    <vehicle id="veh141" type="veh_passenger" depart="681.03">
        <route edges="137464958#0 -149866195#1 -36985290#2 -1124727529#2 -773647502#0 -31585976#0"/>
    </vehicle>
    <vehicle id="veh142" type="veh_passenger" depart="685.86">
        <route edges="-773647503#1 -773647503#0 -1124727534#1 -1124727534#0 -200606082 -36985290#2 -1124727529#2 -773647502#0 -31585976#0 31530089 59571718"/>
    </vehicle>
    <vehicle id="veh143" type="veh_passenger" depart="690.69">
        <route edges="31585976#0 31585976#1 773647502#1 36985290#0 1290725373 -137464958#1"/>
    </vehicle>
    <vehicle id="veh144" type="veh_passenger" depart="695.52">
        <route edges="-42673587#6 32500577#0 32500577#1 32500577#3 32500577#4 -32500577#5 -32500577#3 -32500577#1 -32500577#0"/>
    </vehicle>
    <vehicle id="veh146" type="veh_passenger" depart="705.18">
        <route edges="137464958#0 -149866195#1 -36985290#2 -1124727529#2 -773647502#0 -31585976#0 31585976#0 25931296#0 -25931296#0"/>
    </vehicle>
    <vehicle id="veh148" type="veh_passenger" depart="714.84">
        <route edges="-42673587#6 42673587#5 1161106478 36985290#0 1124727533#0 1124727534#0 1124727534#1 773647503#0 773647503#1 -773647503#1 -773647503#0 -1124727534#1 -1124727534#0"/>
    </vehicle>
    <vehicle id="veh149" type="veh_passenger" depart="719.67">
        <route edges="-1124727538 -1124727537 -149866195#1 -36985290#2 -1124727529#2 -773647502#0 -31585976#0 31530089 59571718"/>
    </vehicle>
    <vehicle id="veh153" type="veh_passenger" depart="738.99">
        <route edges="-32500577#0 42673587#5 1161106478 -1124727529#2 -773647502#0 -31585976#0 31530089 59571718"/>
    </vehicle>
    <vehicle id="veh154" type="veh_passenger" depart="743.82">
        <route edges="25931296#0 -25931296#0 31585976#1 773647502#1 -1161106478 -42673587#6 42673587#5"/>
    </vehicle>
    <vehicle id="veh156" type="veh_passenger" depart="753.48">
        <route edges="-25931296#3 -25931296#0 31585976#1 773647502#1 -1161106478 -42673587#6 -42673587#4 -137474089#1"/>
    </vehicle>
    <vehicle id="veh158" type="veh_passenger" depart="763.14">
        <route edges="-35142095#1 -773647503#1 -773647503#0 -1124727534#1 -1124727534#0 -200606082 -36985290#2 -1124727529#2 -773647502#0 -31585976#0 31585976#0 25931296#0 25931296#1"/>
    </vehicle>
    <vehicle id="veh160" type="veh_passenger" depart="772.80">
        <route edges="32500577#0 32500577#1 32500577#3 32500577#4 -32500577#5 -32500577#3 -32500577#1 -32500577#0 42673587#5 1161106478 -1124727529#2 -773647502#0 -31585976#0 31530089 -83288880#1 -83288880#0 878342715 83288880#1"/>
    </vehicle>
    <vehicle id="veh161" type="veh_passenger" depart="777.63">
        <route edges="31530089 59571718"/>
    </vehicle>
    <vehicle id="veh163" type="veh_passenger" depart="787.29">
        <route edges="-32500577#5 -32500577#3 -32500577#1 -32500577#0 42673587#5 1161106478 36985290#0 1124727533#0 1124727534#0 1124727534#1 773647503#0 773647503#1"/>
    </vehicle>
    <vehicle id="veh167" type="veh_passenger" depart="806.61">
        <route edges="32500577#1 32500577#3 32500577#4 -32500577#5 -32500577#3 -32500577#1 -32500577#0 42673587#5"/>
    </vehicle>
    <vehicle id="veh168" type="veh_passenger" depart="811.44">
        <route edges="-25931296#3 -25931296#0 31585976#1 773647502#1 36985290#0 1124727533#0 1124727534#0 1124727534#1 773647503#0 773647503#1 35142095#0"/>
    </vehicle>
    <vehicle id="veh172" type="veh_passenger" depart="830.76">
        <route edges="-32500577#5 -32500577#3 -32500577#1 -32500577#0 42673587#5"/>
    </vehicle>
    <vehicle id="veh174" type="veh_passenger" depart="840.42">
        <route edges="137464958#0 -149866195#1 -36985290#2 -1124727529#2 -773647502#0 -31585976#0 31530089 -83288880#1 -83288880#0 -840714840"/>
    </vehicle>
    <vehicle id="veh179" type="veh_passenger" depart="864.57">
        <route edges="-1124727538 -1124727537 -149866195#1 1124727533#0 1124727534#0 1124727534#1"/>
    </vehicle>
    <vehicle id="veh181" type="veh_passenger" depart="874.23">
        <route edges="126630184 -126630184 -25931296#0 31585976#1 773647502#1 36985290#0 1290725373"/>
    </vehicle>
    <vehicle id="veh183" type="veh_passenger" depart="883.89">
        <route edges="-31530088 -878342716 878342716 31530088"/>
    </vehicle>
    <vehicle id="veh187" type="veh_passenger" depart="903.21">
        <route edges="-32500577#5 -32500577#3 -32500577#1 -32500577#0 42673587#5 1161106478 36985290#0 1290725373 -137464958#1"/>
    </vehicle>
    <vehicle id="veh188" type="veh_passenger" depart="908.04">
        <route edges="137474089#0 42673585 42673587#5 1161106478 -1124727529#2 -773647502#0"/>
    </vehicle>
    <vehicle id="veh189" type="veh_passenger" depart="912.87">
        <route edges="-32500577#1 -32500577#0 -42673587#4 -137474089#1 137474089#0 42673585"/>
    </vehicle>
    <vehicle id="veh191" type="veh_passenger" depart="922.53">
        <route edges="-32500577#1 -32500577#0 42673587#5 1161106478 -1124727529#2 -773647502#0 -31585976#0 31530089 -83288880#1 -83288880#0 878342716 31530088 -31530088 -878342716"/>
    </vehicle>
    <vehicle id="veh192" type="veh_passenger" depart="927.36">
        <route edges="-35142095#1 -773647503#1 -773647503#0 -1124727534#1 -1124727534#0 -200606082 -36985290#2 -1161106478 -42673587#6 32500577#0 32500577#1 32500577#3 32500577#4 -32500577#5 -32500577#3"/>
    </vehicle>
    <vehicle id="veh193" type="veh_passenger" depart="932.19">
        <route edges="-1161106478 -42673587#6 42673587#5 1161106478 36985290#0 1124727533#0"/>
    </vehicle>
    <vehicle id="veh194" type="veh_passenger" depart="937.02">
        <route edges="83288880#1 -83288880#1 -83288880#0 878342716 31530088"/>
    </vehicle>
    <vehicle id="veh195" type="veh_passenger" depart="941.85">
        <route edges="42673587#5 1161106478 -1124727529#2 -773647502#0 -31585976#0 31585976#0 25931296#0"/>
    </vehicle>
    <vehicle id="veh199" type="veh_passenger" depart="961.17">
        <route edges="137464958#0 1124727537 1124727538"/>
    </vehicle>
    <vehicle id="veh201" type="veh_passenger" depart="970.83">
        <route edges="-773647502#0 -31585976#0 31530089 59571718"/>
    </vehicle>
    <vehicle id="veh203" type="veh_passenger" depart="980.49">
        <route edges="-1124727538 -1124727537 -149866195#1 1290725373"/>
    </vehicle>
    <vehicle id="veh204" type="veh_passenger" depart="985.32">
        <route edges="137464958#0 -149866195#1 1124727533#0 1124727534#0 1124727534#1 773647503#0 773647503#1 -773647503#1 -773647503#0"/>
    </vehicle>
    <vehicle id="veh205" type="veh_passenger" depart="990.15">
        <route edges="31585976#0 31585976#1 773647502#1 -1161106478 -42673587#6 32500577#0 32500577#1 32500577#3"/>
    </vehicle>
    <vehicle id="veh207" type="veh_passenger" depart="999.81">
        <route edges="-200606082 1124727533#0 1124727534#0 1124727534#1 773647503#0 773647503#1 -773647503#1 -773647503#0 -1124727534#1"/>
    </vehicle>
    <vehicle id="veh208" type="veh_passenger" depart="1004.64">
        <route edges="-25931296#3 -25931296#0 31585976#1 773647502#1 36985290#0 1290725373 1124727537 1124727538"/>
    </vehicle>
    <vehicle id="veh209" type="veh_passenger" depart="1009.47">
        <route edges="31585976#0 31585976#1 773647502#1 36985290#0 1290725373 -137464958#1"/>
    </vehicle>
    <vehicle id="veh210" type="veh_passenger" depart="1014.30">
        <route edges="-36985290#2 -1124727529#2 -773647502#0 -31585976#0 31585976#0 25931296#0 25931296#1"/>
    </vehicle>
    <vehicle id="veh213" type="veh_passenger" depart="1028.79">
        <route edges="137464958#0 -149866195#1 -36985290#2 -1124727529#2"/>
    </vehicle>
    <vehicle id="veh215" type="veh_passenger" depart="1038.45">
        <route edges="-1124727538 -1124727537 -149866195#1 1124727533#0 1124727534#0"/>
    </vehicle>
    <vehicle id="veh217" type="veh_passenger" depart="1048.11">
        <route edges="-773647503#2 -773647503#1 -773647503#0 -1124727534#1 -1124727534#0 -200606082 -36985290#2 -1161106478"/>
    </vehicle>
    <vehicle id="veh218" type="veh_passenger" depart="1052.94">
        <route edges="-25931296#3 -25931296#0 31585976#1 773647502#1 -1161106478 -42673587#6 -42673587#4 -137474089#1 137474089#0 42673585"/>
    </vehicle>
    <vehicle id="veh220" type="veh_passenger" depart="1062.60">
        <route edges="137474089#0 42673585 42673587#5 1161106478 -1124727529#2 -773647502#0 -31585976#0 31530089 -83288880#1 -83288880#0 878342715"/>
    </vehicle>
    <vehicle id="veh221" type="veh_passenger" depart="1067.43">
        <route edges="1161106478 36985290#0 1124727533#0 1124727534#0 1124727534#1 773647503#0 773647503#1 773647503#2"/>
    </vehicle>
    <vehicle id="veh222" type="veh_passenger" depart="1072.26">
        <route edges="36985290#0 -36985290#2 -1124727529#2 -773647502#0 -31585976#0 31585976#0 25931296#0"/>
    </vehicle>
    <vehicle id="veh225" type="veh_passenger" depart="1086.75">
        <route edges="42673585 32500577#0 32500577#1"/>
    </vehicle>
    <vehicle id="veh226" type="veh_passenger" depart="1091.58">
        <route edges="-773647502#0 -31585976#0 31585976#0 25931296#0 -25931296#0"/>
    </vehicle>
    <vehicle id="veh227" type="veh_passenger" depart="1096.41">
        <route edges="-25931296#3 25931296#1"/>
    </vehicle>
    <vehicle id="veh229" type="veh_passenger" depart="1106.07">
        <route edges="137464958#0 -149866195#1 -36985290#2 -1161106478 -42673587#6 32500577#0 32500577#1 32500577#3 32500577#4 -32500577#5 -32500577#3 -32500577#1 -32500577#0"/>
    </vehicle>
    <vehicle id="veh230" type="veh_passenger" depart="1110.90">
        <route edges="-1124727538 -1124727537 -149866195#1 -36985290#2 -1161106478 -42673587#6 32500577#0 32500577#1 32500577#3 32500577#4 -32500577#5 -32500577#3 -32500577#1"/>
    </vehicle>
    <vehicle id="veh233" type="veh_passenger" depart="1125.39">
        <route edges="-25931296#3 -25931296#0 -31585976#0 31530089 -83288880#1 -83288880#0 878342716 31530088"/>
    </vehicle>
    <vehicle id="veh237" type="veh_passenger" depart="1144.71">
        <route edges="-42673587#4 -137474089#1 137474089#0 42673585 42673587#5 1161106478 -1124727529#2 -773647502#0 -31585976#0 31530089 59571718"/>
    </vehicle>
    <vehicle id="veh238" type="veh_passenger" depart="1149.54">
        <route edges="1124727534#1 773647503#0 773647503#1 -773647503#1 -773647503#0 -1124727534#1 -1124727534#0 -200606082 -36985290#2 -1124727529#2 -773647502#0 -31585976#0 31530089 -83288880#1 -83288880#0 878342716 31530088"/>
    </vehicle>
    <vehicle id="veh239" type="veh_passenger" depart="1154.37">
        <route edges="31585976#1 773647502#1 -1161106478 -42673587#6 32500577#0 32500577#1 32500577#3 32500577#4"/>
    </vehicle>
    <vehicle id="veh240" type="veh_passenger" depart="1159.20">
        <route edges="-35142095#1 -773647503#1 -773647503#0 -1124727534#1 -1124727534#0 -200606082 -36985290#2 -1124727529#2"/>
    </vehicle>
    <vehicle id="veh241" type="veh_passenger" depart="1164.03">
        <route edges="-32500577#5 -32500577#3 -32500577#1 -32500577#0 32500577#0 32500577#1 32500577#3"/>
    </vehicle>
    <vehicle id="veh242" type="veh_passenger" depart="1168.86">
        <route edges="31585976#0 31585976#1 773647502#1 36985290#0 1124727533#0 1124727534#0 1124727534#1 773647503#0 773647503#1 773647503#2"/>
    </vehicle>
    <vehicle id="veh243" type="veh_passenger" depart="1173.69">
        <route edges="-42673587#4 -137474089#1 137474089#0 42673585 32500577#0 32500577#1 32500577#3"/>
    </vehicle>
    <vehicle id="veh247" type="veh_passenger" depart="1193.01">
        <route edges="-32500577#5 -32500577#3 -32500577#1 -32500577#0 42673587#5 1161106478 -1124727529#2 -773647502#0 -31585976#0 31530089 -83288880#1 -83288880#0 878342716 31530088"/>
    </vehicle>
    <vehicle id="veh250" type="veh_passenger" depart="1207.50">
        <route edges="137464958#0 1124727537 1124727538 -1124727538 -1124727537"/>
    </vehicle>
    <vehicle id="veh253" type="veh_passenger" depart="1221.99">
        <route edges="-126630184 -25931296#0 31585976#1 773647502#1 36985290#0 1290725373 1124727537 1124727538"/>
    </vehicle>
    <vehicle id="veh254" type="veh_passenger" depart="1226.82">
        <route edges="-1124727534#0 -200606082 -36985290#2 -1124727529#2 -773647502#0 -31585976#0 31530089 -83288880#1 -83288880#0 -840714840"/>
    </vehicle>
    <vehicle id="veh255" type="veh_passenger" depart="1231.65">
        <route edges="-25931296#3 -25931296#0 31585976#1 773647502#1 -1124727529#2 -773647502#0"/>
    </vehicle>
    <vehicle id="veh260" type="veh_passenger" depart="1255.80">
        <route edges="878342716 31530088 -31530088 -878342716 878342715 83288880#1 -83288880#1 -83288880#0"/>
    </vehicle>
    <vehicle id="veh261" type="veh_passenger" depart="1260.63">
        <route edges="137464958#0 -149866195#1 -36985290#2 -1161106478 -42673587#6 32500577#0 32500577#1 32500577#3 32500577#4"/>
    </vehicle>
    <vehicle id="veh262" type="veh_passenger" depart="1265.46">
        <route edges="137464958#0 -149866195#1 -36985290#2 -1161106478 -42673587#6 32500577#0 32500577#1 32500577#3"/>
    </vehicle>
    <vehicle id="veh270" type="veh_passenger" depart="1304.10">
        <route edges="31585976#0 31585976#1 773647502#1 36985290#0 1124727533#0 1124727534#0 1124727534#1 773647503#0 773647503#1 773647503#2"/>
    </vehicle>
    <vehicle id="veh271" type="veh_passenger" depart="1308.93">
        <route edges="-1124727538 -1124727537"/>
    </vehicle>
    <vehicle id="veh272" type="veh_passenger" depart="1313.76">
        <route edges="-32500577#1 -32500577#0 42673587#5 1161106478 -1124727529#2 -773647502#0 -31585976#0 31530089 -83288880#1 -83288880#0 878342716 31530088"/>
    </vehicle>
    <vehicle id="veh273" type="veh_passenger" depart="1318.59">
        <route edges="840714840 -840714840"/>
    </vehicle>
    <vehicle id="veh275" type="veh_passenger" depart="1328.25">
        <route edges="137474089#0 42673585 42673587#5 1161106478 -1124727529#2 -773647502#0 -31585976#0 31585976#0 25931296#0 25931296#1"/>
    </vehicle>
    <vehicle id="veh276" type="veh_passenger" depart="1333.08">
        <route edges="-1124727538 -1124727537 -149866195#1 -36985290#2 -1161106478 -42673587#6 32500577#0 32500577#1 32500577#3 32500577#4"/>
    </vehicle>
    <vehicle id="veh280" type="veh_passenger" depart="1352.40">
        <route edges="-42673587#6 42673587#5 1161106478 -1124727529#2 -773647502#0 -31585976#0 31530089 -83288880#1 -83288880#0 -840714840"/>
    </vehicle>
    <vehicle id="veh281" type="veh_passenger" depart="1357.23">
        <route edges="-773647503#2 -773647503#1"/>
    </vehicle>
    <vehicle id="veh282" type="veh_passenger" depart="1362.06">
        <route edges="31585976#0 31585976#1 773647502#1 36985290#0 1124727533#0 1124727534#0 1124727534#1 773647503#0 773647503#1 35142095#0"/>
    </vehicle>
    <vehicle id="veh283" type="veh_passenger" depart="1366.89">
        <route edges="-1124727538 -1124727537 -149866195#1 1124727533#0 1124727534#0 1124727534#1 773647503#0 773647503#1 773647503#2"/>
    </vehicle>
    <vehicle id="veh284" type="veh_passenger" depart="1371.72">
        <route edges="137464958#0 -149866195#1 1124727533#0 1124727534#0 1124727534#1 773647503#0 773647503#1 35142095#0"/>
    </vehicle>
    <vehicle id="veh291" type="veh_passenger" depart="1405.53">
        <route edges="31585976#0 31585976#1 773647502#1 36985290#0 1290725373 -137464958#1"/>
    </vehicle>
    <vehicle id="veh294" type="veh_passenger" depart="1420.02">