<?xml version="1.0" encoding="UTF-8"?>

<!-- generated on 2026-05-20 00:10:24 by Eclipse SUMO netconvert Version 1.18.0
<configuration xmlns:xsi="http://www.w3.org/2001/XMLSchema-instance" xsi:noNamespaceSchemaLocation="http://sumo.dlr.de/xsd/netconvertConfiguration.xsd">

    <input>
        <osm-files value="data/raw/osm/loerrach_real_osm.osm.xml"/>
    </input>

    <output>
        <output-file value="data/sumo_config/loerrach_osm.net.xml"/>
        <output.original-names value="true"/>
    </output>

    <projection>
        <proj.utm value="true"/>
    </projection>

    <processing>
        <geometry.remove value="true"/>
    </processing>

    <tls_building>
        <tls.discard-simple value="true"/>
        <tls.unset value="37072835"/>
        <tls.guess value="true"/>
    </tls_building>

    <ramp_guessing>
        <ramps.guess value="false"/>
    </ramp_guessing>

    <edge_removal>
        <remove-edges.by-vclass value="rail,rail_urban,rail_electric,tram,bicycle,pedestrian"/>
        <remove-edges.isolated value="true"/>
    </edge_removal>

    <junctions>
        <junctions.join value="true"/>
    </junctions>

    <report>
        <no-warnings value="true"/>
    </report>

</configuration>
-->

<net version="1.16" junctionCornerDetail="5" limitTurnSpeed="5.50" xmlns:xsi="http://www.w3.org/2001/XMLSchema-instance" xsi:noNamespaceSchemaLocation="http://sumo.dlr.de/xsd/net_file.xsd">

    <location netOffset="-398569.67,-5272225.42" convBoundary="0.00,0.00,724.16,611.06" origBoundary="7.650718,47.595173,7.660360,47.601043" projParameter="+proj=utm +zone=32 +ellps=WGS84 +datum=WGS84 +units=m +no_defs"/>

    <type id="highway.living_street" priority="2" numLanes="1" speed="2.78" disallow="tram rail_urban rail rail_electric rail_fast ship" oneway="0"/>
    <type id="highway.residential" priority="3" numLanes="1" speed="13.89" disallow="tram rail_urban rail rail_electric rail_fast ship" oneway="0"/>
    <type id="highway.secondary" priority="11" numLanes="1" speed="27.78" disallow="tram rail_urban rail rail_electric rail_fast ship" oneway="0"/>
    <type id="highway.service" priority="1" numLanes="1" speed="5.56" allow="pedestrian delivery bicycle" oneway="0"/>

    <edge id=":10112453456_0" function="internal">
        <lane id=":10112453456_0_0" index="0" disallow="tram rail_urban rail rail_electric rail_fast ship" speed="13.89" length="13.44" shape="394.87,104.76 391.88,91.65"/>
        <lane id=":10112453456_0_1" index="1" disallow="tram rail_urban rail rail_electric rail_fast ship" speed="13.89" length="13.44" shape="397.99,104.03 395.00,90.95"/>
    </edge>
    <edge id=":10112453456_2" function="internal">
        <lane id=":10112453456_2_0" index="0" disallow="tram rail_urban rail rail_electric rail_fast ship" speed="7.81" length="5.71" shape="397.99,104.03 397.40,98.35"/>
    </edge>
    <edge id=":10112453456_3" function="internal">
        <lane id=":10112453456_3_0" index="0" disallow="tram rail_urban rail rail_electric rail_fast ship" speed="3.65" length="1.44" shape="397.99,104.03 398.50,102.69"/>
    </edge>
    <edge id=":10112453456_11" function="internal">
        <lane id=":10112453456_11_0" index="0" disallow="tram rail_urban rail rail_electric rail_fast ship" speed="7.81" length="13.35" shape="397.40,98.35 397.38,98.16 398.81,94.56 402.28,93.26 407.78,94.23"/>
    </edge>
    <edge id=":10112453456_12" function="internal">
        <lane id=":10112453456_12_0" index="0" disallow="tram rail_urban rail rail_electric rail_fast ship" speed="3.65" length="3.23" shape="398.50,102.69 399.19,102.12 400.06,102.33 401.11,103.31"/>
    </edge>
    <edge id=":10112453456_4" function="internal">
        <lane id=":10112453456_4_0" index="0" disallow="tram rail_urban rail rail_electric rail_fast ship" speed="5.77" length="12.53" shape="407.97,97.89 405.28,95.39 403.76,95.35 403.41,97.75 404.22,102.59"/>
    </edge>
    <edge id=":10112453456_5" function="internal">
        <lane id=":10112453456_5_0" index="0" disallow="tram rail_urban rail rail_electric rail_fast ship" speed="11.11" length="15.58" shape="407.97,97.89 404.77,96.23 400.85,95.70 397.24,94.53 395.00,90.95"/>
    </edge>
    <edge id=":10112453456_6" function="internal">
        <lane id=":10112453456_6_0" index="0" disallow="tram rail_urban rail rail_electric rail_fast ship" speed="4.12" length="5.35" shape="407.97,97.89 406.55,97.05 406.04,96.16 406.45,95.22 407.78,94.23"/>
    </edge>
    <edge id=":10112453456_7" function="internal">
        <lane id=":10112453456_7_0" index="0" disallow="tram rail_urban rail rail_electric rail_fast ship" speed="7.98" length="8.34" shape="401.24,89.54 401.89,90.87 403.19,92.10 405.15,93.22 407.78,94.23"/>
    </edge>
    <edge id=":10112453456_8" function="internal">
        <lane id=":10112453456_8_0" index="0" disallow="tram rail_urban rail rail_electric rail_fast ship" speed="13.89" length="13.40" shape="401.24,89.54 404.22,102.59"/>
        <lane id=":10112453456_8_1" index="1" disallow="tram rail_urban rail rail_electric rail_fast ship" speed="13.89" length="13.40" shape="398.12,90.25 401.11,103.31"/>
    </edge>
    <edge id=":10112453456_10" function="internal">
        <lane id=":10112453456_10_0" index="0" disallow="tram rail_urban rail rail_electric rail_fast ship" speed="3.65" length="1.44" shape="398.12,90.25 397.60,91.59"/>
    </edge>
    <edge id=":10112453456_13" function="internal">
        <lane id=":10112453456_13_0" index="0" disallow="tram rail_urban rail rail_electric rail_fast ship" speed="3.65" length="3.23" shape="397.60,91.59 396.91,92.16 396.04,91.94 395.00,90.95"/>
    </edge>
    <edge id=":10112917786_0" function="internal">
        <lane id=":10112917786_0_0" index="0" allow="pedestrian delivery bicycle" speed="3.65" length="4.67" shape="526.57,206.64 526.05,207.98 525.36,208.55 524.49,208.33 523.45,207.33"/>
    </edge>
    <edge id=":10112917789_0" function="internal">
        <lane id=":10112917789_0_0" index="0" allow="pedestrian delivery bicycle" speed="3.92" length="2.30" shape="510.62,153.50 510.28,152.99 509.85,152.68 509.33,152.57 508.72,152.66"/>
    </edge>
    <edge id=":10112917789_1" function="internal">
        <lane id=":10112917789_1_0" index="0" allow="pedestrian delivery bicycle" speed="6.11" length="6.89" shape="507.81,149.60 509.64,149.31 511.20,149.64 512.49,150.57 513.51,152.12"/>
    </edge>
    <edge id=":10112917789_2" function="internal">
        <lane id=":10112917789_2_0" index="0" disallow="tram rail_urban rail rail_electric rail_fast ship" speed="3.65" length="4.67" shape="507.81,149.60 509.18,150.02 509.80,150.67 509.64,151.55 508.72,152.66"/>
    </edge>
    <edge id=":1027005431_0" function="internal">
        <lane id=":1027005431_0_0" index="0" disallow="tram rail_urban rail rail_electric rail_fast ship" speed="13.89" length="7.03" shape="602.76,449.94 601.89,447.92 600.62,446.76 599.49,445.60 599.00,443.55"/>
        <lane id=":1027005431_0_1" index="1" disallow="tram rail_urban rail rail_electric rail_fast ship" speed="13.89" length="7.03" shape="602.76,449.94 602.43,448.06 602.26,446.77 602.20,445.46 602.20,443.56"/>
    </edge>
    <edge id=":1027005431_2" function="internal">
        <lane id=":1027005431_2_0" index="0" disallow="tram rail_urban rail rail_electric rail_fast ship" speed="13.89" length="5.82" shape="605.40,443.57 605.40,445.30 605.45,446.48 605.60,447.65 605.91,449.36"/>
    </edge>
    <edge id=":10285291242_0" function="internal">
        <lane id=":10285291242_0_0" index="0" disallow="tram rail_urban rail rail_electric rail_fast ship" speed="11.11" length="0.31" shape="467.91,430.89 467.70,430.66"/>
        <lane id=":10285291242_0_1" index="1" disallow="tram rail_urban rail rail_electric rail_fast ship" speed="11.11" length="0.31" shape="470.31,428.78 470.11,428.56"/>
    </edge>
    <edge id=":10285291242_2" function="internal">
        <lane id=":10285291242_2_0" index="0" disallow="tram rail_urban rail rail_electric rail_fast ship" speed="11.11" length="0.28" shape="472.53,426.46 472.71,426.67"/>
    </edge>
    <edge id=":10285291245_0" function="internal">
        <lane id=":10285291245_0_0" index="0" disallow="tram rail_urban rail rail_electric rail_fast ship" speed="3.65" length="4.67" shape="616.16,493.31 615.68,494.67 615.00,495.26 614.13,495.07 613.06,494.10"/>
    </edge>
    <edge id=":1063454276_0" function="internal">
        <lane id=":1063454276_0_0" index="0" allow="pedestrian delivery bicycle" speed="5.56" length="6.00" shape="275.53,242.40 275.20,241.19 274.39,240.16 273.10,239.29 271.35,238.60"/>
    </edge>
    <edge id=":1063454276_1" function="internal">
        <lane id=":1063454276_1_0" index="0" allow="pedestrian delivery bicycle" speed="5.56" length="9.27" shape="275.53,242.40 275.37,239.66 275.39,237.78 275.59,235.90 275.96,233.17"/>
    </edge>
    <edge id=":1063454276_2" function="internal">
        <lane id=":1063454276_2_0" index="0" allow="pedestrian delivery bicycle" speed="3.65" length="4.67" shape="275.53,242.40 276.24,241.15 277.01,240.69 277.83,241.03 278.72,242.16"/>
    </edge>
    <edge id=":1063454276_3" function="internal">
        <lane id=":1063454276_3_0" index="0" allow="pedestrian delivery bicycle" speed="5.56" length="8.61" shape="279.13,233.59 278.78,236.13 278.59,237.87 278.57,239.62 278.72,242.16"/>
    </edge>
    <edge id=":1063454276_4" function="internal">
        <lane id=":1063454276_4_0" index="0" allow="pedestrian delivery bicycle" speed="5.56" length="11.00" shape="279.13,233.59 278.29,236.56 276.71,238.39 274.40,239.07 271.35,238.60"/>
    </edge>
    <edge id=":1063454276_5" function="internal">
        <lane id=":1063454276_5_0" index="0" allow="pedestrian delivery bicycle" speed="3.65" length="4.67" shape="279.13,233.59 278.18,234.68 277.34,234.97 276.60,234.47 275.96,233.17"/>
    </edge>
    <edge id=":1063454276_6" function="internal">
        <lane id=":1063454276_6_0" index="0" allow="pedestrian delivery bicycle" speed="4.89" length="5.20" shape="272.28,235.54 273.72,235.76 274.82,235.44 275.56,234.58 275.96,233.17"/>
    </edge>
    <edge id=":1063454276_7" function="internal">
        <lane id=":1063454276_7_0" index="0" allow="pedestrian delivery bicycle" speed="5.56" length="9.86" shape="272.28,235.54 274.96,236.65 276.93,238.12 278.18,239.96 278.72,242.16"/>
    </edge>
    <edge id=":1063454276_8" function="internal">
        <lane id=":1063454276_8_0" index="0" allow="pedestrian delivery bicycle" speed="3.65" length="4.67" shape="272.28,235.54 273.19,236.65 273.34,237.54 272.73,238.19 271.35,238.60"/>
    </edge>
    <edge id=":10799358556_0" function="internal">
        <lane id=":10799358556_0_0" index="0" allow="pedestrian delivery bicycle" speed="3.65" length="4.67" shape="392.71,323.71 393.38,322.44 394.14,321.96 394.98,322.28 395.89,323.39"/>
    </edge>
    <edge id=":10799358557_0" function="internal">
        <lane id=":10799358557_0_0" index="0" disallow="tram rail_urban rail rail_electric rail_fast ship" speed="13.89" length="10.85" shape="401.73,414.71 399.48,412.61 398.05,410.80 396.74,408.85 394.88,406.36"/>
    </edge>
    <edge id=":10799358557_1" function="internal">
        <lane id=":10799358557_1_0" index="0" allow="pedestrian delivery bicycle" speed="8.75" length="2.28" shape="401.73,414.71 400.69,413.16 400.62,412.76"/>
    </edge>
    <edge id=":10799358557_7" function="internal">
        <lane id=":10799358557_7_0" index="0" allow="pedestrian delivery bicycle" speed="8.75" length="9.44" shape="400.62,412.76 400.29,410.77 400.56,407.53 401.48,403.46"/>
    </edge>
    <edge id=":10799358557_2" function="internal">
        <lane id=":10799358557_2_0" index="0" allow="pedestrian delivery bicycle" speed="7.58" length="8.60" shape="404.56,404.31 403.82,407.45 403.52,409.89 403.66,411.62 404.26,412.64"/>
    </edge>
    <edge id=":10799358557_3" function="internal">
        <lane id=":10799358557_3_0" index="0" allow="pedestrian delivery bicycle" speed="6.71" length="14.18" shape="404.56,404.31 402.88,408.32 400.70,410.00 398.04,409.34 394.88,406.36"/>
    </edge>
    <edge id=":10799358557_4" function="internal">
        <lane id=":10799358557_4_0" index="0" allow="pedestrian delivery bicycle" speed="3.65" length="4.67" shape="404.56,404.31 403.47,405.25 402.59,405.43 401.93,404.83 401.48,403.46"/>
    </edge>
    <edge id=":10799358557_5" function="internal">
        <lane id=":10799358557_5_0" index="0" allow="pedestrian delivery bicycle" speed="4.66" length="6.05" shape="397.35,404.33 398.70,405.60 399.83,405.88 400.76,405.16 401.48,403.46"/>
    </edge>
    <edge id=":10799358557_6" function="internal">
        <lane id=":10799358557_6_0" index="0" disallow="tram rail_urban rail rail_electric rail_fast ship" speed="13.89" length="10.85" shape="397.35,404.33 399.22,406.81 400.54,408.75 401.99,410.55 404.26,412.64"/>
    </edge>
    <edge id=":10799358560_0" function="internal">
        <lane id=":10799358560_0_0" index="0" allow="pedestrian delivery bicycle" speed="3.65" length="4.67" shape="398.47,361.99 398.92,360.62 399.58,360.02 400.46,360.19 401.55,361.13"/>
    </edge>
    <edge id=":1403313558_0" function="internal">
        <lane id=":1403313558_0_0" index="0" disallow="tram rail_urban rail rail_electric rail_fast ship" speed="8.33" length="14.44" shape="430.75,180.73 428.25,166.51"/>
    </edge>
    <edge id=":1403313558_1" function="internal">
        <lane id=":1403313558_1_0" index="0" disallow="tram rail_urban rail rail_electric rail_fast ship" speed="8.33" length="14.37" shape="430.75,180.73 430.66,177.00 431.83,173.97 434.27,171.65 437.96,170.04"/>
    </edge>
    <edge id=":1403313558_2" function="internal">
        <lane id=":1403313558_2_0" index="0" disallow="tram rail_urban rail rail_electric rail_fast ship" speed="3.65" length="4.67" shape="430.75,180.73 431.33,179.41 432.05,178.88 432.91,179.14 433.90,180.18"/>
    </edge>
    <edge id=":1403313558_3" function="internal">
        <lane id=":1403313558_3_0" index="0" disallow="tram rail_urban rail rail_electric rail_fast ship" speed="6.96" length="9.61" shape="438.85,173.11 436.33,174.20 434.67,175.74 433.86,177.73 433.90,180.18"/>
    </edge>
    <edge id=":1403313558_4" function="internal">
        <lane id=":1403313558_4_0" index="0" disallow="tram rail_urban rail rail_electric rail_fast ship" speed="7.82" length="14.62" shape="438.85,173.11 434.82,173.68 431.71,172.77 429.52,170.38 428.25,166.51"/>
    </edge>
    <edge id=":1403313558_5" function="internal">
        <lane id=":1403313558_5_0" index="0" disallow="tram rail_urban rail rail_electric rail_fast ship" speed="3.65" length="4.67" shape="438.85,173.11 437.48,172.68 436.87,172.02 437.03,171.14 437.96,170.04"/>
    </edge>
    <edge id=":1403313558_6" function="internal">
        <lane id=":1403313558_6_0" index="0" disallow="tram rail_urban rail rail_electric rail_fast ship" speed="6.28" length="9.04" shape="431.40,165.96 432.19,168.35 433.54,169.83 435.46,170.39 437.96,170.04"/>
    </edge>
    <edge id=":1403313558_7" function="internal">
        <lane id=":1403313558_7_0" index="0" disallow="tram rail_urban rail rail_electric rail_fast ship" speed="8.33" length="14.44" shape="431.40,165.96 433.90,180.18"/>
    </edge>
    <edge id=":1403313558_8" function="internal">
        <lane id=":1403313558_8_0" index="0" disallow="tram rail_urban rail rail_electric rail_fast ship" speed="3.65" length="4.67" shape="431.40,165.96 430.82,167.28 430.10,167.81 429.24,167.56 428.25,166.51"/>
    </edge>
    <edge id=":1628110071_0" function="internal">
        <lane id=":1628110071_0_0" index="0" disallow="tram rail_urban rail rail_electric rail_fast ship" speed="13.89" length="14.85" shape="424.46,339.35 424.38,335.01 425.09,332.01 425.80,329.02 425.70,324.68"/>
        <lane id=":1628110071_0_1" index="1" disallow="tram rail_urban rail rail_electric rail_fast ship" speed="13.89" length="14.85" shape="427.63,338.93 427.56,334.58 428.26,331.59 428.97,328.59 428.87,324.24"/>
    </edge>
    <edge id=":1628110071_2" function="internal">
        <lane id=":1628110071_2_0" index="0" disallow="tram rail_urban rail rail_electric rail_fast ship" speed="8.70" length="4.97" shape="430.80,338.51 431.04,334.61 431.60,333.70"/>
    </edge>
    <edge id=":1628110071_3" function="internal">
        <lane id=":1628110071_3_0" index="0" disallow="tram rail_urban rail rail_electric rail_fast ship" speed="3.65" length="1.44" shape="430.80,338.51 431.44,337.21"/>
    </edge>
    <edge id=":1628110071_10" function="internal">
        <lane id=":1628110071_10_0" index="0" disallow="tram rail_urban rail rail_electric rail_fast ship" speed="8.70" length="11.89" shape="431.60,333.70 432.91,331.58 436.40,329.42 441.53,328.14"/>
    </edge>
    <edge id=":1628110071_11" function="internal">
        <lane id=":1628110071_11_0" index="0" disallow="tram rail_urban rail rail_electric rail_fast ship" speed="3.65" length="3.23" shape="431.44,337.21 432.18,336.71 433.02,337.00 433.97,338.09"/>
    </edge>
    <edge id=":1628110071_4" function="internal">
        <lane id=":1628110071_4_0" index="0" disallow="tram rail_urban rail rail_electric rail_fast ship" speed="7.36" length="11.77" shape="441.98,331.30 438.20,332.20 435.61,333.62 434.20,335.59 433.97,338.09"/>
    </edge>
    <edge id=":1628110071_5" function="internal">
        <lane id=":1628110071_5_0" index="0" disallow="tram rail_urban rail rail_electric rail_fast ship" speed="8.66" length="16.88" shape="441.98,331.30 436.70,331.50 432.75,330.39 430.14,327.97 428.87,324.24"/>
    </edge>
    <edge id=":1628110071_6" function="internal">
        <lane id=":1628110071_6_0" index="0" disallow="tram rail_urban rail rail_electric rail_fast ship" speed="3.65" length="1.44" shape="441.98,331.30 440.68,330.68"/>
    </edge>
    <edge id=":1628110071_12" function="internal">
        <lane id=":1628110071_12_0" index="0" disallow="tram rail_urban rail rail_electric rail_fast ship" speed="3.65" length="3.23" shape="440.68,330.68 440.17,329.95 440.45,329.10 441.53,328.14"/>
    </edge>
    <edge id=":1628110071_7" function="internal">
        <lane id=":1628110071_7_0" index="0" disallow="tram rail_urban rail rail_electric rail_fast ship" speed="6.50" length="9.03" shape="435.21,323.37 435.90,325.75 437.17,327.34 439.05,328.14 441.53,328.14"/>
    </edge>
    <edge id=":1628110071_8" function="internal">
        <lane id=":1628110071_8_0" index="0" disallow="tram rail_urban rail rail_electric rail_fast ship" speed="13.89" length="14.85" shape="435.21,323.37 435.35,328.06 434.72,331.61 434.03,334.73 433.97,338.09"/>
    </edge>
    <edge id=":1628110071_9" function="internal">
        <lane id=":1628110071_9_0" index="0" disallow="tram rail_urban rail rail_electric rail_fast ship" speed="3.65" length="1.44" shape="432.04,323.81 431.42,325.11"/>
    </edge>
    <edge id=":1628110071_13" function="internal">
        <lane id=":1628110071_13_0" index="0" disallow="tram rail_urban rail rail_electric rail_fast ship" speed="3.65" length="3.23" shape="431.42,325.11 430.68,325.61 429.83,325.32 428.87,324.24"/>
    </edge>
    <edge id=":1640977298_0" function="internal">
        <lane id=":1640977298_0_0" index="0" disallow="tram rail_urban rail rail_electric rail_fast ship" speed="3.65" length="4.67" shape="490.41,357.10 490.63,355.67 491.19,354.97 492.09,355.00 493.31,355.76"/>
    </edge>
    <edge id=":1640977305_0" function="internal">
        <lane id=":1640977305_0_0" index="0" disallow="tram rail_urban rail rail_electric rail_fast ship" speed="13.89" length="9.36" shape="465.02,427.58 463.15,425.47 461.85,424.04 460.61,422.56 458.92,420.31"/>
        <lane id=":1640977305_0_1" index="1" disallow="tram rail_urban rail rail_electric rail_fast ship" speed="13.89" length="9.36" shape="467.44,425.48 465.62,423.44 464.35,422.05 463.15,420.62 461.51,418.43"/>
    </edge>
    <edge id=":1640977305_2" function="internal">
        <lane id=":1640977305_2_0" index="0" disallow="tram rail_urban rail rail_electric rail_fast ship" speed="13.89" length="8.93" shape="464.10,416.55 465.69,418.67 466.86,420.06 468.09,421.40 469.85,423.38"/>
    </edge>
    <edge id=":1640977305_3" function="internal">
        <lane id=":1640977305_3_0" index="0" allow="pedestrian delivery bicycle" speed="8.78" length="8.70" shape="460.87,428.47 461.18,426.51 460.96,424.50 460.21,422.43 458.92,420.31"/>
    </edge>
    <edge id=":1640977305_4" function="internal">
        <lane id=":1640977305_4_0" index="0" allow="pedestrian delivery bicycle" speed="6.73" length="13.90" shape="460.87,428.47 462.72,423.86 464.84,421.47 467.21,421.31 469.85,423.38"/>
    </edge>
    <edge id=":19387435_0" function="internal">
        <lane id=":19387435_0_0" index="0" allow="pedestrian delivery bicycle" speed="5.48" length="5.54" shape="414.00,218.34 413.64,217.07 412.84,216.15 411.62,215.59 409.98,215.39"/>
    </edge>
    <edge id=":19387435_1" function="internal">
        <lane id=":19387435_1_0" index="0" disallow="tram rail_urban rail rail_electric rail_fast ship" speed="13.89" length="9.47" shape="414.00,218.34 412.96,208.94"/>
        <lane id=":19387435_1_1" index="1" disallow="tram rail_urban rail rail_electric rail_fast ship" speed="13.89" length="9.47" shape="417.19,218.00 416.14,208.57"/>
    </edge>
    <edge id=":19387435_3" function="internal">
        <lane id=":19387435_3_0" index="0" disallow="tram rail_urban rail rail_electric rail_fast ship" speed="13.89" length="9.52" shape="422.50,207.85 423.55,217.32"/>
        <lane id=":19387435_3_1" index="1" disallow="tram rail_urban rail rail_electric rail_fast ship" speed="13.89" length="9.52" shape="419.32,208.21 420.37,217.66"/>
    </edge>
    <edge id=":19387435_5" function="internal">
        <lane id=":19387435_5_0" index="0" allow="pedestrian delivery bicycle" speed="7.55" length="3.20" shape="419.32,208.21 419.05,211.40"/>
    </edge>
    <edge id=":19387435_9" function="internal">
        <lane id=":19387435_9_0" index="0" allow="pedestrian delivery bicycle" speed="7.55" length="10.52" shape="419.05,211.40 417.40,213.66 414.38,214.99 409.98,215.39"/>
    </edge>
    <edge id=":19387435_6" function="internal">
        <lane id=":19387435_6_0" index="0" allow="pedestrian delivery bicycle" speed="4.91" length="5.16" shape="410.02,212.19 411.45,212.00 412.41,211.40 412.92,210.38 412.96,208.94"/>
    </edge>
    <edge id=":19387435_7" function="internal">
        <lane id=":19387435_7_0" index="0" allow="pedestrian delivery bicycle" speed="7.97" length="12.79" shape="410.02,212.19 414.33,212.58 417.50,213.62 419.51,215.32 420.37,217.66"/>
    </edge>
    <edge id=":19387435_8" function="internal">
        <lane id=":19387435_8_0" index="0" allow="pedestrian delivery bicycle" speed="3.65" length="4.67" shape="410.02,212.19 411.21,213.01 411.60,213.81 411.19,214.61 409.98,215.39"/>
    </edge>
    <edge id=":19387444_0" function="internal">
        <lane id=":19387444_0_0" index="0" disallow="tram rail_urban rail rail_electric rail_fast ship" speed="5.94" length="8.08" shape="391.83,91.45 391.06,89.64 389.72,88.63 387.83,88.42 385.37,89.02"/>
    </edge>
    <edge id=":19387444_1" function="internal">
        <lane id=":19387444_1_0" index="0" disallow="tram rail_urban rail rail_electric rail_fast ship" speed="3.65" length="4.67" shape="394.96,90.75 395.47,89.40 396.17,88.84 397.04,89.05 398.08,90.05"/>
    </edge>
    <edge id=":2518929673_0" function="internal">
        <lane id=":2518929673_0_0" index="0" allow="pedestrian delivery bicycle" speed="5.09" length="4.99" shape="373.68,311.88 373.41,310.55 372.77,309.62 371.77,309.08 370.41,308.93"/>
    </edge>
    <edge id=":2518929673_1" function="internal">
        <lane id=":2518929673_1_0" index="0" disallow="tram rail_urban rail rail_electric rail_fast ship" speed="13.89" length="6.13" shape="373.68,311.88 373.43,305.75"/>
    </edge>
    <edge id=":2518929673_2" function="internal">
        <lane id=":2518929673_2_0" index="0" disallow="tram rail_urban rail rail_electric rail_fast ship" speed="13.89" length="5.99" shape="376.63,305.69 376.88,311.67"/>
    </edge>
    <edge id=":2518929673_3" function="internal">
        <lane id=":2518929673_3_0" index="0" allow="pedestrian delivery bicycle" speed="6.09" length="1.63" shape="376.63,305.69 376.26,307.03 376.08,307.19"/>
    </edge>
    <edge id=":2518929673_4" function="internal">
        <lane id=":2518929673_4_0" index="0" allow="pedestrian delivery bicycle" speed="6.09" length="6.10" shape="376.08,307.19 375.10,308.02 373.15,308.66 370.41,308.93"/>
    </edge>
    <edge id=":2518929706_0" function="internal">
        <lane id=":2518929706_0_0" index="0" allow="pedestrian delivery bicycle" speed="6.95" length="8.81" shape="499.43,465.68 497.74,464.14 495.85,463.13 493.78,462.63 491.53,462.66"/>
    </edge>
    <edge id=":2518929706_1" function="internal">
        <lane id=":2518929706_1_0" index="0" disallow="tram rail_urban rail rail_electric rail_fast ship" speed="8.33" length="9.54" shape="499.43,465.68 492.97,458.70"/>
        <lane id=":2518929706_1_1" index="1" disallow="tram rail_urban rail rail_electric rail_fast ship" speed="8.33" length="9.54" shape="501.82,463.54 495.31,456.52"/>
    </edge>
    <edge id=":2518929706_3" function="internal">
        <lane id=":2518929706_3_0" index="0" disallow="tram rail_urban rail rail_electric rail_fast ship" speed="8.33" length="9.64" shape="497.65,454.34 504.20,461.41"/>
    </edge>
    <edge id=":2518929706_4" function="internal">
        <lane id=":2518929706_4_0" index="0" allow="pedestrian delivery bicycle" speed="6.75" length="14.50" shape="497.65,454.34 499.65,457.41 499.29,459.82 496.59,461.57 491.53,462.66"/>
    </edge>
    <edge id=":281094079_0" function="internal">
        <lane id=":281094079_0_0" index="0" disallow="tram rail_urban rail rail_electric rail_fast ship" speed="3.65" length="4.67" shape="205.60,276.46 204.33,275.78 203.86,275.02 204.18,274.18 205.30,273.27"/>
    </edge>
    <edge id=":30830551_0" function="internal">
        <lane id=":30830551_0_0" index="0" disallow="tram rail_urban rail rail_electric rail_fast ship" speed="3.65" length="4.67" shape="44.76,160.68 43.49,159.99 43.02,159.23 43.35,158.40 44.47,157.50"/>
    </edge>
    <edge id=":313946704_0" function="internal">
        <lane id=":313946704_0_0" index="0" disallow="tram rail_urban rail rail_electric rail_fast ship" speed="8.33" length="14.26" shape="620.78,181.52 617.31,167.68"/>
    </edge>
    <edge id=":313946704_1" function="internal">
        <lane id=":313946704_1_0" index="0" disallow="tram rail_urban rail rail_electric rail_fast ship" speed="7.98" length="14.24" shape="620.78,181.52 620.43,177.63 621.42,174.57 623.74,172.35 627.40,170.97"/>
    </edge>
    <edge id=":313946704_2" function="internal">
        <lane id=":313946704_2_0" index="0" disallow="tram rail_urban rail rail_electric rail_fast ship" speed="3.65" length="4.67" shape="620.78,181.52 621.28,180.17 621.97,179.60 622.84,179.80 623.89,180.79"/>
    </edge>
    <edge id=":313946704_3" function="internal">
        <lane id=":313946704_3_0" index="0" disallow="tram rail_urban rail rail_electric rail_fast ship" speed="6.48" length="9.03" shape="628.09,174.10 625.77,174.97 624.30,176.38 623.67,178.32 623.89,180.79"/>
    </edge>
    <edge id=":313946704_4" function="internal">
        <lane id=":313946704_4_0" index="0" disallow="tram rail_urban rail rail_electric rail_fast ship" speed="8.12" length="14.18" shape="628.09,174.10 624.20,174.41 621.11,173.44 618.81,171.20 617.31,167.68"/>
    </edge>
    <edge id=":313946704_5" function="internal">
        <lane id=":313946704_5_0" index="0" disallow="tram rail_urban rail rail_electric rail_fast ship" speed="3.65" length="4.67" shape="628.09,174.10 626.75,173.58 626.18,172.88 626.40,172.01 627.40,170.97"/>
    </edge>
    <edge id=":313946704_6" function="internal">
        <lane id=":313946704_6_0" index="0" disallow="tram rail_urban rail rail_electric rail_fast ship" speed="6.65" length="9.17" shape="620.40,166.86 621.37,169.12 622.86,170.56 624.87,171.18 627.40,170.97"/>
    </edge>
    <edge id=":313946704_7" function="internal">
        <lane id=":313946704_7_0" index="0" disallow="tram rail_urban rail rail_electric rail_fast ship" speed="8.33" length="14.36" shape="620.40,166.86 623.89,180.79"/>
    </edge>
    <edge id=":313946704_8" function="internal">
        <lane id=":313946704_8_0" index="0" disallow="tram rail_urban rail rail_electric rail_fast ship" speed="3.65" length="4.67" shape="620.40,166.86 619.94,168.23 619.27,168.82 618.39,168.64 617.31,167.68"/>
    </edge>
    <edge id=":313946712_0" function="internal">
        <lane id=":313946712_0_0" index="0" disallow="tram rail_urban rail rail_electric rail_fast ship" speed="8.33" length="14.41" shape="615.81,162.06 612.12,148.13"/>
    </edge>
    <edge id=":313946712_1" function="internal">
        <lane id=":313946712_1_0" index="0" disallow="tram rail_urban rail rail_electric rail_fast ship" speed="7.99" length="14.21" shape="615.81,162.06 615.35,158.19 616.25,155.11 618.49,152.81 622.08,151.31"/>
    </edge>
    <edge id=":313946712_2" function="internal">
        <lane id=":313946712_2_0" index="0" disallow="tram rail_urban rail rail_electric rail_fast ship" speed="3.65" length="4.67" shape="615.81,162.06 616.28,160.69 616.95,160.10 617.82,160.28 618.90,161.24"/>
    </edge>
    <edge id=":313946712_3" function="internal">
        <lane id=":313946712_3_0" index="0" disallow="tram rail_urban rail rail_electric rail_fast ship" speed="6.50" length="9.03" shape="622.89,154.40 620.61,155.36 619.18,156.82 618.61,158.78 618.90,161.24"/>
    </edge>
    <edge id=":313946712_4" function="internal">
        <lane id=":313946712_4_0" index="0" disallow="tram rail_urban rail rail_electric rail_fast ship" speed="8.02" length="14.20" shape="622.89,154.40 619.02,154.84 615.93,153.95 613.63,151.71 612.12,148.13"/>
    </edge>