<?xml version="1.0" encoding="UTF-8"?>

<!-- generated on 2026-03-31T21:09:32.587039+01:00 by Eclipse SUMO netconvert 1.26.0
<netconvertConfiguration xmlns:xsi="http://www.w3.org/2001/XMLSchema-instance" xsi:noNamespaceSchemaLocation="http://sumo.dlr.de/xsd/netconvertConfiguration.xsd">

    <input>
        <node-files value="data/sumo_config/loerrach.nod.xml"/>
        <edge-files value="data/sumo_config/loerrach.edg.xml"/>
    </input>

    <output>
        <output-file value="data/sumo_config/loerrach.net.xml"/>
    </output>

    <tls_building>
        <tls.guess value="true"/>
        <tls.default-type value="actuated"/>
    </tls_building>

    <junctions>
        <no-turnarounds value="true"/>
    </junctions>

</netconvertConfiguration>
-->

<net version="1.20" junctionCornerDetail="5" limitTurnSpeed="5.50" xmlns:xsi="http://www.w3.org/2001/XMLSchema-instance" xsi:noNamespaceSchemaLocation="http://sumo.dlr.de/xsd/net_file.xsd">

    <location netOffset="200.00,200.00" convBoundary="0.00,0.00,400.00,400.00" origBoundary="-200.00,-200.00,200.00,200.00" projParameter="!"/>

    <edge id=":C_0" function="internal">
        <lane id=":C_0_0" index="0" speed="6.51" length="9.03" shape="195.20,207.20 194.85,204.75 193.80,203.00 192.05,201.95 189.60,201.60"/>
    </edge>
    <edge id=":C_1" function="internal">
        <lane id=":C_1_0" index="0" speed="13.89" length="14.40" shape="195.20,207.20 195.20,192.80"/>
        <lane id=":C_1_1" index="1" speed="13.89" length="14.40" shape="198.40,207.20 198.40,192.80"/>
    </edge>
    <edge id=":C_3" function="internal">
        <lane id=":C_3_0" index="0" speed="8.67" length="3.71" shape="198.40,207.20 199.11,203.56"/>
    </edge>
    <edge id=":C_14" function="internal">
        <lane id=":C_14_0" index="0" speed="8.67" length="13.14" shape="199.11,203.56 199.15,203.35 201.40,200.60 205.15,198.95 210.40,198.40"/>
    </edge>
    <edge id=":C_4" function="internal">
        <lane id=":C_4_0" index="0" speed="6.51" length="9.03" shape="210.40,201.60 207.95,201.95 206.20,203.00 205.15,204.75 204.80,207.20"/>
    </edge>
    <edge id=":C_5" function="internal">
        <lane id=":C_5_0" index="0" speed="13.89" length="20.80" shape="210.40,201.60 189.60,201.60"/>
    </edge>
    <edge id=":C_6" function="internal">
        <lane id=":C_6_0" index="0" speed="8.67" length="5.56" shape="210.40,201.60 205.15,201.05 204.89,200.94"/>
    </edge>
    <edge id=":C_15" function="internal">
        <lane id=":C_15_0" index="0" speed="8.67" length="11.29" shape="204.89,200.94 201.40,199.40 199.15,196.65 198.40,192.80"/>
    </edge>
    <edge id=":C_7" function="internal">
        <lane id=":C_7_0" index="0" speed="6.51" length="9.03" shape="204.80,192.80 205.15,195.25 206.20,197.00 207.95,198.05 210.40,198.40"/>
    </edge>
    <edge id=":C_8" function="internal">
        <lane id=":C_8_0" index="0" speed="13.89" length="14.40" shape="204.80,192.80 204.80,207.20"/>
        <lane id=":C_8_1" index="1" speed="13.89" length="14.40" shape="201.60,192.80 201.60,207.20"/>
    </edge>
    <edge id=":C_10" function="internal">
        <lane id=":C_10_0" index="0" speed="8.67" length="3.71" shape="201.60,192.80 200.89,196.44"/>
    </edge>
    <edge id=":C_16" function="internal">
        <lane id=":C_16_0" index="0" speed="8.67" length="13.14" shape="200.89,196.44 200.85,196.65 198.60,199.40 194.85,201.05 189.60,201.60"/>
    </edge>
    <edge id=":C_11" function="internal">
        <lane id=":C_11_0" index="0" speed="6.51" length="9.03" shape="189.60,198.40 192.05,198.05 193.80,197.00 194.85,195.25 195.20,192.80"/>
    </edge>
    <edge id=":C_12" function="internal">
        <lane id=":C_12_0" index="0" speed="13.89" length="20.80" shape="189.60,198.40 210.40,198.40"/>
    </edge>
    <edge id=":C_13" function="internal">
        <lane id=":C_13_0" index="0" speed="8.67" length="5.56" shape="189.60,198.40 194.85,198.95 195.11,199.06"/>
    </edge>
    <edge id=":C_17" function="internal">
        <lane id=":C_17_0" index="0" speed="8.67" length="11.29" shape="195.11,199.06 198.60,200.60 200.85,203.35 201.60,207.20"/>
    </edge>

    <edge id="C_E" from="C" to="E" priority="2">
        <lane id="C_E_0" index="0" speed="13.89" length="189.60" shape="210.40,198.40 400.00,198.40"/>
    </edge>
    <edge id="C_N" from="C" to="N" priority="3">
        <lane id="C_N_0" index="0" speed="13.89" length="192.80" shape="204.80,207.20 204.80,400.00"/>
        <lane id="C_N_1" index="1" speed="13.89" length="192.80" shape="201.60,207.20 201.60,400.00"/>
    </edge>
    <edge id="C_S" from="C" to="S" priority="3">
        <lane id="C_S_0" index="0" speed="13.89" length="192.80" shape="195.20,192.80 195.20,0.00"/>
        <lane id="C_S_1" index="1" speed="13.89" length="192.80" shape="198.40,192.80 198.40,0.00"/>
    </edge>
    <edge id="C_W" from="C" to="W" priority="2">
        <lane id="C_W_0" index="0" speed="13.89" length="189.60" shape="189.60,201.60 0.00,201.60"/>
    </edge>
    <edge id="E_C" from="E" to="C" priority="2">
        <lane id="E_C_0" index="0" speed="13.89" length="189.60" shape="400.00,201.60 210.40,201.60"/>
    </edge>
    <edge id="N_C" from="N" to="C" priority="3">
        <lane id="N_C_0" index="0" speed="13.89" length="192.80" shape="195.20,400.00 195.20,207.20"/>
        <lane id="N_C_1" index="1" speed="13.89" length="192.80" shape="198.40,400.00 198.40,207.20"/>
    </edge>
    <edge id="S_C" from="S" to="C" priority="3">
        <lane id="S_C_0" index="0" speed="13.89" length="192.80" shape="204.80,0.00 204.80,192.80"/>
        <lane id="S_C_1" index="1" speed="13.89" length="192.80" shape="201.60,0.00 201.60,192.80"/>
    </edge>
    <edge id="W_C" from="W" to="C" priority="2">
        <lane id="W_C_0" index="0" speed="13.89" length="189.60" shape="0.00,198.40 189.60,198.40"/>
    </edge>

    <tlLogic id="C" type="actuated" programID="0" offset="0">
        <phase duration="42" state="GGGgrrrGGGgrrr" minDur="5" maxDur="50"/>
        <phase duration="3"  state="yyyyrrryyyyrrr"/>
        <phase duration="42" state="rrrrGGgrrrrGGg" minDur="5" maxDur="50"/>
        <phase duration="3"  state="rrrryyyrrrryyy"/>
    </tlLogic>

    <junction id="C" type="traffic_light" x="200.00" y="200.00" incLanes="N_C_0 N_C_1 E_C_0 S_C_0 S_C_1 W_C_0" intLanes=":C_0_0 :C_1_0 :C_1_1 :C_14_0 :C_4_0 :C_5_0 :C_15_0 :C_7_0 :C_8_0 :C_8_1 :C_16_0 :C_11_0 :C_12_0 :C_17_0" shape="193.60,207.20 206.40,207.20 206.84,204.98 207.40,204.20 208.18,203.64 209.18,203.31 210.40,203.20 210.40,196.80 208.18,196.36 207.40,195.80 206.84,195.02 206.51,194.02 206.40,192.80 193.60,192.80 193.16,195.02 192.60,195.80 191.82,196.36 190.82,196.69 189.60,196.80 189.60,203.20 191.82,203.64 192.60,204.20 193.16,204.98 193.49,205.98">
        <request index="0"  response="00000000000000" foes="00010000100000" cont="0"/>
        <request index="1"  response="10000000000000" foes="11110001100000" cont="0"/>
        <request index="2"  response="10000001000000" foes="11110001100000" cont="0"/>
        <request index="3"  response="10001111000000" foes="11001111100000" cont="1"/>
        <request index="4"  response="00001100000000" foes="00001100000000" cont="0"/>
        <request index="5"  response="00011100001111" foes="10011100001111" cont="0"/>
        <request index="6"  response="01011100001110" foes="01011100001110" cont="1"/>
        <request index="7"  response="00000000000000" foes="01000000001000" cont="0"/>
        <request index="8"  response="00000001000000" foes="11000001111000" cont="0"/>
        <request index="9"  response="10000001000000" foes="11000001111000" cont="0"/>
        <request index="10" response="10000001000111" foes="11000001100111" cont="1"/>
        <request index="11" response="00000000000110" foes="00000000000110" cont="0"/>
        <request index="12" response="00011110001110" foes="00011111001110" cont="0"/>
        <request index="13" response="00011100101110" foes="00011100101110" cont="1"/>
    </junction>
    <junction id="E" type="dead_end" x="400.00" y="200.00" incLanes="C_E_0" intLanes="" shape="400.00,200.00 400.00,196.80 400.00,200.00"/>
    <junction id="N" type="dead_end" x="200.00" y="400.00" incLanes="C_N_0 C_N_1" intLanes="" shape="200.00,400.00 206.40,400.00 200.00,400.00"/>
    <junction id="S" type="dead_end" x="200.00" y="0.00" incLanes="C_S_0 C_S_1" intLanes="" shape="200.00,0.00 193.60,0.00 200.00,0.00"/>
    <junction id="W" type="dead_end" x="0.00" y="200.00" incLanes="C_W_0" intLanes="" shape="0.00,200.00 0.00,203.20 0.00,200.00"/>

    <junction id=":C_14_0" type="internal" x="199.11" y="203.56" incLanes=":C_3_0 S_C_0 S_C_1" intLanes=":C_5_0 :C_6_0 :C_7_0 :C_8_0 :C_8_1 :C_12_0 :C_13_0"/>
    <junction id=":C_15_0" type="internal" x="204.89" y="200.94" incLanes=":C_6_0 W_C_0" intLanes=":C_1_0 :C_1_1 :C_3_0 :C_8_0 :C_8_1 :C_10_0 :C_11_0 :C_12_0"/>
    <junction id=":C_16_0" type="internal" x="200.89" y="196.44" incLanes=":C_10_0 N_C_0 N_C_1" intLanes=":C_0_0 :C_1_0 :C_1_1 :C_5_0 :C_6_0 :C_12_0 :C_13_0"/>
    <junction id=":C_17_0" type="internal" x="195.11" y="199.06" incLanes=":C_13_0 E_C_0" intLanes=":C_1_0 :C_1_1 :C_3_0 :C_4_0 :C_5_0 :C_8_0 :C_8_1 :C_10_0"/>

    <connection from="E_C" to="C_N" fromLane="0" toLane="0" via=":C_4_0" tl="C" linkIndex="4" dir="r" state="o"/>
    <connection from="E_C" to="C_W" fromLane="0" toLane="0" via=":C_5_0" tl="C" linkIndex="5" dir="s" state="o"/>
    <connection from="E_C" to="C_S" fromLane="0" toLane="1" via=":C_6_0" tl="C" linkIndex="6" dir="l" state="o"/>
    <connection from="N_C" to="C_W" fromLane="0" toLane="0" via=":C_0_0" tl="C" linkIndex="0" dir="r" state="O"/>
    <connection from="N_C" to="C_S" fromLane="0" toLane="0" via=":C_1_0" tl="C" linkIndex="1" dir="s" state="O"/>
    <connection from="N_C" to="C_S" fromLane="1" toLane="1" via=":C_1_1" tl="C" linkIndex="2" dir="s" state="O"/>
    <connection from="N_C" to="C_E" fromLane="1" toLane="0" via=":C_3_0" tl="C" linkIndex="3" dir="l" state="o"/>
    <connection from="S_C" to="C_E" fromLane="0" toLane="0" via=":C_7_0" tl="C" linkIndex="7" dir="r" state="O"/>
    <connection from="S_C" to="C_N" fromLane="0" toLane="0" via=":C_8_0" tl="C" linkIndex="8" dir="s" state="O"/>
    <connection from="S_C" to="C_N" fromLane="1" toLane="1" via=":C_8_1" tl="C" linkIndex="9" dir="s" state="O"/>
    <connection from="S_C" to="C_W" fromLane="1" toLane="0" via=":C_10_0" tl="C" linkIndex="10" dir="l" state="o"/>
    <connection from="W_C" to="C_S" fromLane="0" toLane="0" via=":C_11_0" tl="C" linkIndex="11" dir="r" state="o"/>
    <connection from="W_C" to="C_E" fromLane="0" toLane="0" via=":C_12_0" tl="C" linkIndex="12" dir="s" state="o"/>
    <connection from="W_C" to="C_N" fromLane="0" toLane="1" via=":C_13_0" tl="C" linkIndex="13" dir="l" state="o"/>

    <connection from=":C_0" to="C_W" fromLane="0" toLane="0" dir="r" state="M"/>
    <connection from=":C_1" to="C_S" fromLane="0" toLane="0" dir="s" state="M"/>
    <connection from=":C_1" to="C_S" fromLane="1" toLane="1" dir="s" state="M"/>
    <connection from=":C_3" to="C_E" fromLane="0" toLane="0" via=":C_14_0" dir="l" state="m"/>
    <connection from=":C_14" to="C_E" fromLane="0" toLane="0" dir="l" state="M"/>
    <connection from=":C_4" to="C_N" fromLane="0" toLane="0" dir="r" state="M"/>
    <connection from=":C_5" to="C_W" fromLane="0" toLane="0" dir="s" state="M"/>
    <connection from=":C_6" to="C_S" fromLane="0" toLane="1" via=":C_15_0" dir="l" state="m"/>
    <connection from=":C_15" to="C_S" fromLane="0" toLane="1" dir="l" state="M"/>
    <connection from=":C_7" to="C_E" fromLane="0" toLane="0" dir="r" state="M"/>
    <connection from=":C_8" to="C_N" fromLane="0" toLane="0" dir="s" state="M"/>
    <connection from=":C_8" to="C_N" fromLane="1" toLane="1" dir="s" state="M"/>
    <connection from=":C_10" to="C_W" fromLane="0" toLane="0" via=":C_16_0" dir="l" state="m"/>
    <connection from=":C_16" to="C_W" fromLane="0" toLane="0" dir="l" state="M"/>
    <connection from=":C_11" to="C_S" fromLane="0" toLane="0" dir="r" state="M"/>
    <connection from=":C_12" to="C_E" fromLane="0" toLane="0" dir="s" state="M"/>
    <connection from=":C_13" to="C_N" fromLane="0" toLane="1" via=":C_17_0" dir="l" state="m"/>
    <connection from=":C_17" to="C_N" fromLane="0" toLane="1" dir="l" state="M"/>

</net>
