<?xml version="1.0" encoding="UTF-8"?>
<!-- Generated by scripts/init_data_osm.py - OSM-imported network
     Basler Str. × Obere Riehenstr., Lörrach-Stetten.
     Scenario: high (931 trips over 3600s,
     randomTrips.py period=2.15s, validate, fringe-factor 5).
     Calibration target: BASt 2023 Zst 8570 peak-hour ≈ 680 veh/h
     (16:00 share = 8.46 % × DTV 8037 Kfz/24h).
     TLS under control: OSM ID 1628110071. -->
<routes xmlns:xsi="http://www.w3.org/2001/XMLSchema-instance" xsi:noNamespaceSchemaLocation="http://sumo.dlr.de/xsd/routes_file.xsd">
    <vType id="veh_passenger" vClass="passenger"/>
    <vehicle id="veh0" type="veh_passenger" depart="0.00">
        <route edges="137464958#0 -149866195#1 1124727533#0 1124727534#0 1124727534#1 773647503#0 773647503#1 -773647503#1 -773647503#0 -1124727534#1"/>
    </vehicle>
    <vehicle id="veh3" type="veh_passenger" depart="6.45">
        <route edges="36985290#0 1290725373 -137464958#1"/>
    </vehicle>
    <vehicle id="veh4" type="veh_passenger" depart="8.60">
        <route edges="-42673587#4 -137474089#1 137474089#0 42673585 42673587#5 1161106478 36985290#0 1290725373 1124727537 1124727538 -1124727538 -1124727537"/>
    </vehicle>
    <vehicle id="veh5" type="veh_passenger" depart="10.75">
        <route edges="-25931296#3 126630184"/>
    </vehicle>
    <vehicle id="veh6" type="veh_passenger" depart="12.90">
        <route edges="-1032031479 -183169793#2 -183169793#1"/>
    </vehicle>
    <vehicle id="veh10" type="veh_passenger" depart="21.50">
        <route edges="31530089 -83288880#1 -83288880#0 878342716 31530088"/>
    </vehicle>
    <vehicle id="veh13" type="veh_passenger" depart="27.95">
        <route edges="-1124727538 -1124727537 -137464958#1"/>
    </vehicle>
    <vehicle id="veh16" type="veh_passenger" depart="34.40">
        <route edges="-773647503#2 773647503#2"/>
    </vehicle>
    <vehicle id="veh18" type="veh_passenger" depart="38.70">
        <route edges="31585976#0 25931296#0"/>
    </vehicle>
    <vehicle id="veh21" type="veh_passenger" depart="45.15">
        <route edges="-25931296#3 -25931296#0 31585976#1 773647502#1 -1161106478 -42673587#6 32500577#0 32500577#1 32500577#3 32500577#4 -32500577#5 -32500577#3"/>
    </vehicle>
    <vehicle id="veh23" type="veh_passenger" depart="49.45">
        <route edges="-1124727538 -1124727537 -149866195#1 -36985290#2 -1161106478 -42673587#6 32500577#0 32500577#1 32500577#3 32500577#4 -32500577#5 -32500577#3 -32500577#1 -32500577#0"/>
    </vehicle>
    <vehicle id="veh24" type="veh_passenger" depart="51.60">
        <route edges="137464958#0 -149866195#1 -36985290#2 -1124727529#2 -773647502#0 -31585976#0 31530089 -83288880#1 -83288880#0 -840714840"/>
    </vehicle>
    <vehicle id="veh31" type="veh_passenger" depart="66.65">
        <route edges="-878342716 878342716 31530088"/>
    </vehicle>
    <vehicle id="veh32" type="veh_passenger" depart="68.80">
        <route edges="31585976#0 31585976#1 773647502#1 -1161106478 -42673587#6 32500577#0 32500577#1 32500577#3 32500577#4"/>
    </vehicle>
    <vehicle id="veh33" type="veh_passenger" depart="70.95">
        <route edges="-25931296#3 -25931296#0 31585976#1 773647502#1 36985290#0 1290725373 1124727537 1124727538 -1124727538 -1124727537"/>
    </vehicle>
    <vehicle id="veh34" type="veh_passenger" depart="73.10">
        <route edges="-32500577#1 -32500577#0 42673587#5 1161106478 -1124727529#2 -773647502#0 -31585976#0"/>
    </vehicle>
    <vehicle id="veh35" type="veh_passenger" depart="75.25">
        <route edges="-25931296#0 31585976#1 773647502#1 36985290#0 1124727533#0 1124727534#0 1124727534#1 773647503#0 773647503#1 773647503#2"/>
    </vehicle>
    <vehicle id="veh36" type="veh_passenger" depart="77.40">
        <route edges="32500577#1 32500577#3 32500577#4 -32500577#5 -32500577#3 -32500577#1 -32500577#0 42673587#5 1161106478 -1161106478 -42673587#6"/>
    </vehicle>
    <vehicle id="veh37" type="veh_passenger" depart="79.55">
        <route edges="137464958#0 -149866195#1 -36985290#2 -1124727529#2 -773647502#0 -31585976#0 31530089 -83288880#1 -83288880#0 -840714840"/>
    </vehicle>
    <vehicle id="veh38" type="veh_passenger" depart="81.70">
        <route edges="773647502#1 36985290#0 1290725373 1124727537 1124727538"/>
    </vehicle>
    <vehicle id="veh40" type="veh_passenger" depart="86.00">
        <route edges="1124727533#0 1124727534#0 1124727534#1 773647503#0 773647503#1 -773647503#1 -773647503#0 -1124727534#1 -1124727534#0 -200606082 -36985290#2 -1124727529#2 -773647502#0 -31585976#0"/>
    </vehicle>
    <vehicle id="veh41" type="veh_passenger" depart="88.15">
        <route edges="1124727534#1 773647503#0 773647503#1 -773647503#1 -773647503#0 -1124727534#1 -1124727534#0 -200606082 -36985290#2 -1124727529#2 -773647502#0 -31585976#0 31530089 59571718"/>
    </vehicle>
    <vehicle id="veh44" type="veh_passenger" depart="94.60">
        <route edges="-1124727538 -1124727537 -149866195#1 -36985290#2 -1161106478"/>
    </vehicle>
    <vehicle id="veh45" type="veh_passenger" depart="96.75">
        <route edges="-1124727538 -1124727537 -149866195#1 -36985290#2 -1124727529#2 -773647502#0 -31585976#0 31585976#0 25931296#0 25931296#1"/>
    </vehicle>
    <vehicle id="veh46" type="veh_passenger" depart="98.90">
        <route edges="25931296#0 -25931296#0 31585976#1 773647502#1 36985290#0 1124727533#0"/>
    </vehicle>
    <vehicle id="veh47" type="veh_passenger" depart="101.05">
        <route edges="-1124727534#1 -1124727534#0 -200606082 -36985290#2 -1124727529#2 -773647502#0 -31585976#0 31530089 -83288880#1 -83288880#0 -840714840"/>
    </vehicle>
    <vehicle id="veh53" type="veh_passenger" depart="113.95">
        <route edges="-1124727538 -1124727537 -149866195#1 1124727533#0 1124727534#0 1124727534#1"/>
    </vehicle>
    <vehicle id="veh55" type="veh_passenger" depart="118.25">
        <route edges="32500577#1 32500577#3 32500577#4 -32500577#5 -32500577#3 -32500577#1 -32500577#0 42673587#5 1161106478 -1124727529#2 -773647502#0 -31585976#0"/>
    </vehicle>
    <vehicle id="veh57" type="veh_passenger" depart="122.55">
        <route edges="773647502#1 -1124727529#2 -773647502#0 -31585976#0 31530089 59571718"/>
    </vehicle>
    <vehicle id="veh58" type="veh_passenger" depart="124.70">
        <route edges="-31585976#0 31585976#0 25931296#0 25931296#1"/>
    </vehicle>
    <vehicle id="veh64" type="veh_passenger" depart="137.60">
        <route edges="32500577#3 32500577#4 -32500577#5 -32500577#3 -32500577#1 -32500577#0 42673587#5 1161106478 36985290#0 1124727533#0 1124727534#0 1124727534#1 773647503#0 773647503#1 35142095#0"/>
    </vehicle>
    <vehicle id="veh65" type="veh_passenger" depart="139.75">
        <route edges="-32500577#0 42673587#5 1161106478 -1124727529#2 -773647502#0 -31585976#0 31585976#0 25931296#0 126630184 -126630184"/>
    </vehicle>
    <vehicle id="veh66" type="veh_passenger" depart="141.90">
        <route edges="32500577#1 32500577#3 32500577#4 -32500577#5 -32500577#3 -32500577#1 -32500577#0 42673587#5 1161106478 36985290#0 1124727533#0 1124727534#0 1124727534#1 773647503#0 773647503#1 773647503#2"/>
    </vehicle>
    <vehicle id="veh67" type="veh_passenger" depart="144.05">
        <route edges="-1124727538 -1124727537 1124727537 1124727538"/>
    </vehicle>
    <vehicle id="veh68" type="veh_passenger" depart="146.20">
        <route edges="-1124727537 -149866195#1 -36985290#2 -1161106478 -42673587#6 32500577#0 32500577#1 32500577#3 32500577#4"/>
    </vehicle>
    <vehicle id="veh71" type="veh_passenger" depart="152.65">
        <route edges="-31530088 -878342716 878342715 83288880#1 59571718"/>
    </vehicle>
    <vehicle id="veh74" type="veh_passenger" depart="159.10">
        <route edges="-200606082 -36985290#2 -1161106478 -42673587#6 -42673587#4"/>
    </vehicle>
    <vehicle id="veh77" type="veh_passenger" depart="165.55">
        <route edges="-1153453441 -183169793#1"/>
    </vehicle>
    <vehicle id="veh80" type="veh_passenger" depart="172.00">
        <route edges="-1124727537 -149866195#1 -36985290#2 -1124727529#2 -773647502#0 -31585976#0 31585976#0 25931296#0 25931296#1"/>
    </vehicle>
    <vehicle id="veh81" type="veh_passenger" depart="174.15">
        <route edges="-25931296#3 -25931296#0 -31585976#0 31530089 59571718"/>
    </vehicle>
    <vehicle id="veh82" type="veh_passenger" depart="176.30">
        <route edges="31585976#1 773647502#1 36985290#0 1290725373 -137464958#1"/>
    </vehicle>
    <vehicle id="veh84" type="veh_passenger" depart="180.60">
        <route edges="-25931296#3 -25931296#0 31585976#1 773647502#1 -1161106478 -42673587#6 -42673587#4 -137474089#1"/>
    </vehicle>
    <vehicle id="veh86" type="veh_passenger" depart="184.90">
        <route edges="-773647502#0 -31585976#0 31585976#0 31585976#1 773647502#1 -1161106478 -42673587#6 32500577#0 32500577#1 32500577#3 32500577#4"/>
    </vehicle>
    <vehicle id="veh88" type="veh_passenger" depart="189.20">
        <route edges="-1124727538 -1124727537 -149866195#1 1124727533#0 1124727534#0"/>
    </vehicle>
    <vehicle id="veh89" type="veh_passenger" depart="191.35">
        <route edges="-42673587#6 42673587#5 1161106478 36985290#0 1290725373 1124727537 1124727538"/>
    </vehicle>
    <vehicle id="veh92" type="veh_passenger" depart="197.80">
        <route edges="-35142095#1 -773647503#1"/>
    </vehicle>
    <vehicle id="veh93" type="veh_passenger" depart="199.95">
        <route edges="31585976#1 773647502#1 36985290#0 1124727533#0 1124727534#0 1124727534#1 773647503#0 773647503#1 -773647503#1 -773647503#0 -1124727534#1 -1124727534#0 -200606082"/>
    </vehicle>
    <vehicle id="veh95" type="veh_passenger" depart="204.25">
        <route edges="-42673587#4 -137474089#1 137474089#0 42673585 32500577#0 32500577#1 32500577#3 32500577#4 -32500577#5 -32500577#3 -32500577#1 -32500577#0"/>
    </vehicle>
    <vehicle id="veh96" type="veh_passenger" depart="206.40">
        <route edges="-25931296#3 -25931296#0 31585976#1 773647502#1 36985290#0 1124727533#0 1124727534#0 1124727534#1 773647503#0"/>
    </vehicle>
    <vehicle id="veh103" type="veh_passenger" depart="221.45">
        <route edges="-35142095#1 -773647503#1 -773647503#0 -1124727534#1 -1124727534#0 -200606082 -36985290#2 -1124727529#2 -773647502#0 -31585976#0 31585976#0 25931296#0 126630184 -126630184"/>
    </vehicle>
    <vehicle id="veh104" type="veh_passenger" depart="223.60">
        <route edges="-35142095#1 -773647503#1 -773647503#0 -1124727534#1 -1124727534#0 -200606082 -36985290#2 -1124727529#2 -773647502#0 -31585976#0 31530089 -83288880#1 -83288880#0 878342715"/>
    </vehicle>
    <vehicle id="veh107" type="veh_passenger" depart="230.05">
        <route edges="840714840 878342716"/>
    </vehicle>
    <vehicle id="veh113" type="veh_passenger" depart="242.95">
        <route edges="-773647503#2 -773647503#1 -773647503#0 -1124727534#1 -1124727534#0 -200606082 -36985290#2 -1161106478 -42673587#6 -42673587#4 -137474089#1 137474089#0 42673585"/>
    </vehicle>
    <vehicle id="veh116" type="veh_passenger" depart="249.40">
        <route edges="1161106478 -1124727529#2 -773647502#0 -31585976#0 31530089 -83288880#1 -83288880#0 878342716 31530088"/>
    </vehicle>
    <vehicle id="veh117" type="veh_passenger" depart="251.55">
        <route edges="-25931296#3 -25931296#0 31585976#1 773647502#1 -1161106478 -42673587#6 -42673587#4 -137474089#1"/>
    </vehicle>
    <vehicle id="veh118" type="veh_passenger" depart="253.70">
        <route edges="36985290#0 1124727533#0 1124727534#0 1124727534#1 773647503#0 773647503#1 -773647503#1 -773647503#0 -1124727534#1 -1124727534#0 -200606082"/>
    </vehicle>
    <vehicle id="veh119" type="veh_passenger" depart="255.85">
        <route edges="1161106478 -1124727529#2 -773647502#0 -31585976#0 31585976#0 25931296#0 25931296#1"/>
    </vehicle>
    <vehicle id="veh121" type="veh_passenger" depart="260.15">
        <route edges="-773647503#2 773647503#2"/>
    </vehicle>
    <vehicle id="veh122" type="veh_passenger" depart="262.30">
        <route edges="-25931296#0 -31585976#0 31530089"/>
    </vehicle>
    <vehicle id="veh123" type="veh_passenger" depart="264.45">
        <route edges="-25931296#3 -25931296#0 -31585976#0 31530089 -83288880#1 -83288880#0 -840714840"/>
    </vehicle>
    <vehicle id="veh124" type="veh_passenger" depart="266.60">
        <route edges="137474089#0 42673585 42673587#5 1161106478 36985290#0 -36985290#2"/>
    </vehicle>
    <vehicle id="veh125" type="veh_passenger" depart="268.75">
        <route edges="-32500577#1 -32500577#0 32500577#0 32500577#1 32500577#3"/>
    </vehicle>
    <vehicle id="veh126" type="veh_passenger" depart="270.90">
        <route edges="-1124727537 1124727537 1124727538"/>
    </vehicle>
    <vehicle id="veh127" type="veh_passenger" depart="273.05">
        <route edges="878342716"/>
    </vehicle>
    <vehicle id="veh130" type="veh_passenger" depart="279.50">
        <route edges="32500577#3 32500577#4 -32500577#5 -32500577#3 -32500577#1 -32500577#0 42673587#5 1161106478 -1124727529#2 -773647502#0 -31585976#0 31530089 59571718"/>
    </vehicle>
    <vehicle id="veh132" type="veh_passenger" depart="283.80">
        <route edges="31585976#0 -31585976#0 31530089 -83288880#1 -83288880#0 878342716 31530088"/>
    </vehicle>
    <vehicle id="veh133" type="veh_passenger" depart="285.95">
        <route edges="1290725373 -149866195#1 -36985290#2 -1124727529#2 -773647502#0 -31585976#0 31530089 -83288880#1 -83288880#0 878342715"/>
    </vehicle>
    <vehicle id="veh134" type="veh_passenger" depart="288.10">
        <route edges="137464958#0 -149866195#1 -36985290#2 -1124727529#2"/>
    </vehicle>
    <vehicle id="veh135" type="veh_passenger" depart="290.25">
        <route edges="31585976#0 31585976#1 773647502#1 36985290#0 -36985290#2"/>
    </vehicle>
    <vehicle id="veh136" type="veh_passenger" depart="292.40">
        <route edges="137474089#0 42673585 42673587#5 1161106478 36985290#0 1124727533#0 1124727534#0 1124727534#1 773647503#0 773647503#1 773647503#2"/>
    </vehicle>
    <vehicle id="veh137" type="veh_passenger" depart="294.55">
        <route edges="-126630184 -25931296#0 31585976#1 773647502#1 -1161106478 -42673587#6 -42673587#4 -137474089#1"/>
    </vehicle>
    <vehicle id="veh141" type="veh_passenger" depart="303.15">
        <route edges="137464958#0 -149866195#1 -36985290#2 -1124727529#2 -773647502#0 -31585976#0"/>
    </vehicle>
    <vehicle id="veh142" type="veh_passenger" depart="305.30">
        <route edges="-773647503#1 -773647503#0 -1124727534#1 -1124727534#0 -200606082 -36985290#2 -1124727529#2 -773647502#0 -31585976#0 31530089 59571718"/>
    </vehicle>
    <vehicle id="veh143" type="veh_passenger" depart="307.45">
        <route edges="31585976#0 31585976#1 773647502#1 36985290#0 1290725373 -137464958#1"/>
    </vehicle>
    <vehicle id="veh144" type="veh_passenger" depart="309.60">
        <route edges="-42673587#6 32500577#0 32500577#1 32500577#3 32500577#4 -32500577#5 -32500577#3 -32500577#1 -32500577#0"/>
    </vehicle>
    <vehicle id="veh146" type="veh_passenger" depart="313.90">
        <route edges="137464958#0 -149866195#1 -36985290#2 -1124727529#2 -773647502#0 -31585976#0 31585976#0 25931296#0 -25931296#0"/>
    </vehicle>
    <vehicle id="veh148" type="veh_passenger" depart="318.20">
        <route edges="-42673587#6 42673587#5 1161106478 36985290#0 1124727533#0 1124727534#0 1124727534#1 773647503#0 773647503#1 -773647503#1 -773647503#0 -1124727534#1 -1124727534#0"/>
    </vehicle>
    <vehicle id="veh149" type="veh_passenger" depart="320.35">
        <route edges="-1124727538 -1124727537 -149866195#1 -36985290#2 -1124727529#2 -773647502#0 -31585976#0 31530089 59571718"/>
    </vehicle>
    <vehicle id="veh153" type="veh_passenger" depart="328.95">
        <route edges="-32500577#0 42673587#5 1161106478 -1124727529#2 -773647502#0 -31585976#0 31530089 59571718"/>
    </vehicle>
    <vehicle id="veh154" type="veh_passenger" depart="331.10">
        <route edges="25931296#0 -25931296#0 31585976#1 773647502#1 -1161106478 -42673587#6 42673587#5"/>
    </vehicle>
    <vehicle id="veh156" type="veh_passenger" depart="335.40">
        <route edges="-25931296#3 -25931296#0 31585976#1 773647502#1 -1161106478 -42673587#6 -42673587#4 -137474089#1"/>
    </vehicle>
    <vehicle id="veh158" type="veh_passenger" depart="339.70">
        <route edges="-35142095#1 -773647503#1 -773647503#0 -1124727534#1 -1124727534#0 -200606082 -36985290#2 -1124727529#2 -773647502#0 -31585976#0 31585976#0 25931296#0 25931296#1"/>
    </vehicle>
    <vehicle id="veh160" type="veh_passenger" depart="344.00">
        <route edges="32500577#0 32500577#1 32500577#3 32500577#4 -32500577#5 -32500577#3 -32500577#1 -32500577#0 42673587#5 1161106478 -1124727529#2 -773647502#0 -31585976#0 31530089 -83288880#1 -83288880#0 878342715 83288880#1"/>
    </vehicle>
    <vehicle id="veh161" type="veh_passenger" depart="346.15">
        <route edges="31530089 59571718"/>
    </vehicle>
    <vehicle id="veh163" type="veh_passenger" depart="350.45">
        <route edges="-32500577#5 -32500577#3 -32500577#1 -32500577#0 42673587#5 1161106478 36985290#0 1124727533#0 1124727534#0 1124727534#1 773647503#0 773647503#1"/>
    </vehicle>
    <vehicle id="veh167" type="veh_passenger" depart="359.05">
        <route edges="32500577#1 32500577#3 32500577#4 -32500577#5 -32500577#3 -32500577#1 -32500577#0 42673587#5"/>
    </vehicle>
    <vehicle id="veh168" type="veh_passenger" depart="361.20">
        <route edges="-25931296#3 -25931296#0 31585976#1 773647502#1 36985290#0 1124727533#0 1124727534#0 1124727534#1 773647503#0 773647503#1 35142095#0"/>
    </vehicle>
    <vehicle id="veh172" type="veh_passenger" depart="369.80">
        <route edges="-32500577#5 -32500577#3 -32500577#1 -32500577#0 42673587#5"/>
    </vehicle>
    <vehicle id="veh174" type="veh_passenger" depart="374.10">
        <route edges="137464958#0 -149866195#1 -36985290#2 -1124727529#2 -773647502#0 -31585976#0 31530089 -83288880#1 -83288880#0 -840714840"/>
    </vehicle>
    <vehicle id="veh179" type="veh_passenger" depart="384.85">
        <route edges="-1124727538 -1124727537 -149866195#1 1124727533#0 1124727534#0 1124727534#1"/>
    </vehicle>
    <vehicle id="veh181" type="veh_passenger" depart="389.15">
        <route edges="126630184 -126630184 -25931296#0 31585976#1 773647502#1 36985290#0 1290725373"/>
    </vehicle>
    <vehicle id="veh183" type="veh_passenger" depart="393.45">
        <route edges="-31530088 -878342716 878342716 31530088"/>
    </vehicle>
    <vehicle id="veh187" type="veh_passenger" depart="402.05">
        <route edges="-32500577#5 -32500577#3 -32500577#1 -32500577#0 42673587#5 1161106478 36985290#0 1290725373 -137464958#1"/>
    </vehicle>
    <vehicle id="veh188" type="veh_passenger" depart="404.20">
        <route edges="137474089#0 42673585 42673587#5 1161106478 -1124727529#2 -773647502#0"/>
    </vehicle>
    <vehicle id="veh189" type="veh_passenger" depart="406.35">
        <route edges="-32500577#1 -32500577#0 -42673587#4 -137474089#1 137474089#0 42673585"/>
    </vehicle>
    <vehicle id="veh191" type="veh_passenger" depart="410.65">
        <route edges="-32500577#1 -32500577#0 42673587#5 1161106478 -1124727529#2 -773647502#0 -31585976#0 31530089 -83288880#1 -83288880#0 878342716 31530088 -31530088 -878342716"/>
    </vehicle>
    <vehicle id="veh192" type="veh_passenger" depart="412.80">
        <route edges="-35142095#1 -773647503#1 -773647503#0 -1124727534#1 -1124727534#0 -200606082 -36985290#2 -1161106478 -42673587#6 32500577#0 32500577#1 32500577#3 32500577#4 -32500577#5 -32500577#3"/>
    </vehicle>
    <vehicle id="veh193" type="veh_passenger" depart="414.95">
        <route edges="-1161106478 -42673587#6 42673587#5 1161106478 36985290#0 1124727533#0"/>
    </vehicle>
    <vehicle id="veh194" type="veh_passenger" depart="417.10">
        <route edges="83288880#1 -83288880#1 -83288880#0 878342716 31530088"/>
    </vehicle>
    <vehicle id="veh195" type="veh_passenger" depart="419.25">
        <route edges="42673587#5 1161106478 -1124727529#2 -773647502#0 -31585976#0 31585976#0 25931296#0"/>
    </vehicle>
    <vehicle id="veh199" type="veh_passenger" depart="427.85">
        <route edges="137464958#0 1124727537 1124727538"/>
    </vehicle>
    <vehicle id="veh201" type="veh_passenger" depart="432.15">
        <route edges="-773647502#0 -31585976#0 31530089 59571718"/>
    </vehicle>
    <vehicle id="veh203" type="veh_passenger" depart="436.45">
        <route edges="-1124727538 -1124727537 -149866195#1 1290725373"/>
    </vehicle>
    <vehicle id="veh204" type="veh_passenger" depart="438.60">
        <route edges="137464958#0 -149866195#1 1124727533#0 1124727534#0 1124727534#1 773647503#0 773647503#1 -773647503#1 -773647503#0"/>
    </vehicle>
    <vehicle id="veh205" type="veh_passenger" depart="440.75">
        <route edges="31585976#0 31585976#1 773647502#1 -1161106478 -42673587#6 32500577#0 32500577#1 32500577#3"/>
    </vehicle>
    <vehicle id="veh207" type="veh_passenger" depart="445.05">
        <route edges="-200606082 1124727533#0 1124727534#0 1124727534#1 773647503#0 773647503#1 -773647503#1 -773647503#0 -1124727534#1"/>
    </vehicle>
    <vehicle id="veh208" type="veh_passenger" depart="447.20">
        <route edges="-25931296#3 -25931296#0 31585976#1 773647502#1 36985290#0 1290725373 1124727537 1124727538"/>
    </vehicle>
    <vehicle id="veh209" type="veh_passenger" depart="449.35">
        <route edges="31585976#0 31585976#1 773647502#1 36985290#0 1290725373 -137464958#1"/>
    </vehicle>
    <vehicle id="veh210" type="veh_passenger" depart="451.50">
        <route edges="-36985290#2 -1124727529#2 -773647502#0 -31585976#0 31585976#0 25931296#0 25931296#1"/>
    </vehicle>
    <vehicle id="veh213" type="veh_passenger" depart="457.95">
        <route edges="137464958#0 -149866195#1 -36985290#2 -1124727529#2"/>
    </vehicle>
    <vehicle id="veh215" type="veh_passenger" depart="462.25">
        <route edges="-1124727538 -1124727537 -149866195#1 1124727533#0 1124727534#0"/>
    </vehicle>
    <vehicle id="veh217" type="veh_passenger" depart="466.55">
        <route edges="-773647503#2 -773647503#1 -773647503#0 -1124727534#1 -1124727534#0 -200606082 -36985290#2 -1161106478"/>
    </vehicle>
    <vehicle id="veh218" type="veh_passenger" depart="468.70">
        <route edges="-25931296#3 -25931296#0 31585976#1 773647502#1 -1161106478 -42673587#6 -42673587#4 -137474089#1 137474089#0 42673585"/>
    </vehicle>
    <vehicle id="veh220" type="veh_passenger" depart="473.00">
        <route edges="137474089#0 42673585 42673587#5 1161106478 -1124727529#2 -773647502#0 -31585976#0 31530089 -83288880#1 -83288880#0 878342715"/>
    </vehicle>
    <vehicle id="veh221" type="veh_passenger" depart="475.15">
        <route edges="1161106478 36985290#0 1124727533#0 1124727534#0 1124727534#1 773647503#0 773647503#1 773647503#2"/>
    </vehicle>
    <vehicle id="veh222" type="veh_passenger" depart="477.30">
        <route edges="36985290#0 -36985290#2 -1124727529#2 -773647502#0 -31585976#0 31585976#0 25931296#0"/>
    </vehicle>
    <vehicle id="veh225" type="veh_passenger" depart="483.75">
        <route edges="42673585 32500577#0 32500577#1"/>
    </vehicle>
    <vehicle id="veh226" type="veh_passenger" depart="485.90">
        <route edges="-773647502#0 -31585976#0 31585976#0 25931296#0 -25931296#0"/>
    </vehicle>
    <vehicle id="veh227" type="veh_passenger" depart="488.05">
        <route edges="-25931296#3 25931296#1"/>
    </vehicle>
    <vehicle id="veh229" type="veh_passenger" depart="492.35">
        <route edges="137464958#0 -149866195#1 -36985290#2 -1161106478 -42673587#6 32500577#0 32500577#1 32500577#3 32500577#4 -32500577#5 -32500577#3 -32500577#1 -32500577#0"/>
    </vehicle>
    <vehicle id="veh230" type="veh_passenger" depart="494.50">
        <route edges="-1124727538 -1124727537 -149866195#1 -36985290#2 -1161106478 -42673587#6 32500577#0 32500577#1 32500577#3 32500577#4 -32500577#5 -32500577#3 -32500577#1"/>
    </vehicle>
    <vehicle id="veh233" type="veh_passenger" depart="500.95">
        <route edges="-25931296#3 -25931296#0 -31585976#0 31530089 -83288880#1 -83288880#0 878342716 31530088"/>
    </vehicle>
    <vehicle id="veh237" type="veh_passenger" depart="509.55">
        <route edges="-42673587#4 -137474089#1 137474089#0 42673585 42673587#5 1161106478 -1124727529#2 -773647502#0 -31585976#0 31530089 59571718"/>
    </vehicle>
    <vehicle id="veh238" type="veh_passenger" depart="511.70">
        <route edges="1124727534#1 773647503#0 773647503#1 -773647503#1 -773647503#0 -1124727534#1 -1124727534#0 -200606082 -36985290#2 -1124727529#2 -773647502#0 -31585976#0 31530089 -83288880#1 -83288880#0 878342716 31530088"/>
    </vehicle>
    <vehicle id="veh239" type="veh_passenger" depart="513.85">
        <route edges="31585976#1 773647502#1 -1161106478 -42673587#6 32500577#0 32500577#1 32500577#3 32500577#4"/>
    </vehicle>
    <vehicle id="veh240" type="veh_passenger" depart="516.00">
        <route edges="-35142095#1 -773647503#1 -773647503#0 -1124727534#1 -1124727534#0 -200606082 -36985290#2 -1124727529#2"/>
    </vehicle>
    <vehicle id="veh241" type="veh_passenger" depart="518.15">
        <route edges="-32500577#5 -32500577#3 -32500577#1 -32500577#0 32500577#0 32500577#1 32500577#3"/>
    </vehicle>
    <vehicle id="veh242" type="veh_passenger" depart="520.30">
        <route edges="31585976#0 31585976#1 773647502#1 36985290#0 1124727533#0 1124727534#0 1124727534#1 773647503#0 773647503#1 773647503#2"/>
    </vehicle>
    <vehicle id="veh243" type="veh_passenger" depart="522.45">
        <route edges="-42673587#4 -137474089#1 137474089#0 42673585 32500577#0 32500577#1 32500577#3"/>
    </vehicle>
    <vehicle id="veh247" type="veh_passenger" depart="531.05">
        <route edges="-32500577#5 -32500577#3 -32500577#1 -32500577#0 42673587#5 1161106478 -1124727529#2 -773647502#0 -31585976#0 31530089 -83288880#1 -83288880#0 878342716 31530088"/>
    </vehicle>
    <vehicle id="veh250" type="veh_passenger" depart="537.50">
        <route edges="137464958#0 1124727537 1124727538 -1124727538 -1124727537"/>
    </vehicle>
    <vehicle id="veh253" type="veh_passenger" depart="543.95">
        <route edges="-126630184 -25931296#0 31585976#1 773647502#1 36985290#0 1290725373 1124727537 1124727538"/>
    </vehicle>
    <vehicle id="veh254" type="veh_passenger" depart="546.10">
        <route edges="-1124727534#0 -200606082 -36985290#2 -1124727529#2 -773647502#0 -31585976#0 31530089 -83288880#1 -83288880#0 -840714840"/>
    </vehicle>
    <vehicle id="veh255" type="veh_passenger" depart="548.25">
        <route edges="-25931296#3 -25931296#0 31585976#1 773647502#1 -1124727529#2 -773647502#0"/>
    </vehicle>
    <vehicle id="veh260" type="veh_passenger" depart="559.00">
        <route edges="878342716 31530088 -31530088 -878342716 878342715 83288880#1 -83288880#1 -83288880#0"/>
    </vehicle>
    <vehicle id="veh261" type="veh_passenger" depart="561.15">
        <route edges="137464958#0 -149866195#1 -36985290#2 -1161106478 -42673587#6 32500577#0 32500577#1 32500577#3 32500577#4"/>
    </vehicle>
    <vehicle id="veh262" type="veh_passenger" depart="563.30">
        <route edges="137464958#0 -149866195#1 -36985290#2 -1161106478 -42673587#6 32500577#0 32500577#1 32500577#3"/>
    </vehicle>
    <vehicle id="veh270" type="veh_passenger" depart="580.50">
        <route edges="31585976#0 31585976#1 773647502#1 36985290#0 1124727533#0 1124727534#0 1124727534#1 773647503#0 773647503#1 773647503#2"/>
    </vehicle>
    <vehicle id="veh271" type="veh_passenger" depart="582.65">
        <route edges="-1124727538 -1124727537"/>
    </vehicle>
    <vehicle id="veh272" type="veh_passenger" depart="584.80">
        <route edges="-32500577#1 -32500577#0 42673587#5 1161106478 -1124727529#2 -773647502#0 -31585976#0 31530089 -83288880#1 -83288880#0 878342716 31530088"/>
    </vehicle>
    <vehicle id="veh273" type="veh_passenger" depart="586.95">
        <route edges="840714840 -840714840"/>
    </vehicle>
    <vehicle id="veh275" type="veh_passenger" depart="591.25">
        <route edges="137474089#0 42673585 42673587#5 1161106478 -1124727529#2 -773647502#0 -31585976#0 31585976#0 25931296#0 25931296#1"/>
    </vehicle>
    <vehicle id="veh276" type="veh_passenger" depart="593.40">
        <route edges="-1124727538 -1124727537 -149866195#1 -36985290#2 -1161106478 -42673587#6 32500577#0 32500577#1 32500577#3 32500577#4"/>
    </vehicle>
    <vehicle id="veh280" type="veh_passenger" depart="602.00">
        <route edges="-42673587#6 42673587#5 1161106478 -1124727529#2 -773647502#0 -31585976#0 31530089 -83288880#1 -83288880#0 -840714840"/>
    </vehicle>
    <vehicle id="veh281" type="veh_passenger" depart="604.15">
        <route edges="-773647503#2 -773647503#1"/>
    </vehicle>
    <vehicle id="veh282" type="veh_passenger" depart="606.30">
        <route edges="31585976#0 31585976#1 773647502#1 36985290#0 1124727533#0 1124727534#0 1124727534#1 773647503#0 773647503#1 35142095#0"/>
    </vehicle>
    <vehicle id="veh283" type="veh_passenger" depart="608.45">
        <route edges="-1124727538 -1124727537 -149866195#1 1124727533#0 1124727534#0 1124727534#1 773647503#0 773647503#1 773647503#2"/>
    </vehicle>
    <vehicle id="veh284" type="veh_passenger" depart="610.60">
        <route edges="137464958#0 -149866195#1 1124727533#0 1124727534#0 1124727534#1 773647503#0 773647503#1 35142095#0"/>
    </vehicle>
    <vehicle id="veh291" type="veh_passenger" depart="625.65">
        <route edges="31585976#0 31585976#1 773647502#1 36985290#0 1290725373 -137464958#1"/>
    </vehicle>
    <vehicle id="veh294" type="veh_passenger" depart="632.10">
        <route edges="-35142095#1 -773647503#1 -773647503#0 -1124727534#1 -1124727534#0 -200606082 1290725373 1124727537 1124727538 -1124727538 -1124727537"/>