<?xml version="1.0" encoding="UTF-8"?>
<!-- Edges for Basler Str. / Lörrach Mitte intersection
     Basler Str. (N-S): 2 lanes, 50 km/h, priority road
     Querstraße (E-W):  1 lane,  50 km/h, secondary
-->
<edges>
    <!-- Basler Straße Nord → Kreuzung (2 Spuren, 50 km/h) -->
    <edge id="N_C" from="N" to="C" numLanes="2" speed="13.89" priority="3"/>
    <edge id="C_N" from="C" to="N" numLanes="2" speed="13.89" priority="3"/>

    <!-- Basler Straße Süd → Kreuzung (2 Spuren, 50 km/h) -->
    <edge id="S_C" from="S" to="C" numLanes="2" speed="13.89" priority="3"/>
    <edge id="C_S" from="C" to="S" numLanes="2" speed="13.89" priority="3"/>

    <!-- Querstraße Ost → Kreuzung (1 Spur, 50 km/h) -->
    <edge id="E_C" from="E" to="C" numLanes="1" speed="13.89" priority="2"/>
    <edge id="C_E" from="C" to="E" numLanes="1" speed="13.89" priority="2"/>

    <!-- Querstraße West → Kreuzung (1 Spur, 50 km/h) -->
    <edge id="W_C" from="W" to="C" numLanes="1" speed="13.89" priority="2"/>
    <edge id="C_W" from="C" to="W" numLanes="1" speed="13.89" priority="2"/>
</edges>
