<?xml version="1.0" encoding="UTF-8"?>
<!-- Generated by scripts/init_data.py - 772 veh/h rush-hour -->
<routes>
    <!-- Vehicle type: standard passenger car -->
    <vType id="car" vClass="passenger" length="5.0" minGap="2.5"
           maxSpeed="13.89" accel="2.6" decel="4.5" sigma="0.5"/>

    <!-- Routes (all 12 OD pairs) -->
    <route id="N_S" edges="N_C C_S"/>
    <route id="N_E" edges="N_C C_E"/>
    <route id="N_W" edges="N_C C_W"/>
    <route id="S_N" edges="S_C C_N"/>
    <route id="S_W" edges="S_C C_W"/>
    <route id="S_E" edges="S_C C_E"/>
    <route id="E_W" edges="E_C C_W"/>
    <route id="E_N" edges="E_C C_N"/>
    <route id="E_S" edges="E_C C_S"/>
    <route id="W_E" edges="W_C C_E"/>
    <route id="W_S" edges="W_C C_S"/>
    <route id="W_N" edges="W_C C_N"/>

    <!-- Flows (rush-hour 17:00-18:00) -->
    <flow id="N_S_flow" type="car" route="N_S" begin="0" end="3600" vehsPerHour="139" departLane="best" departSpeed="max"/>
    <flow id="N_E_flow" type="car" route="N_E" begin="0" end="3600" vehsPerHour="46" departLane="best" departSpeed="max"/>
    <flow id="N_W_flow" type="car" route="N_W" begin="0" end="3600" vehsPerHour="46" departLane="best" departSpeed="max"/>
    <flow id="S_N_flow" type="car" route="S_N" begin="0" end="3600" vehsPerHour="139" departLane="best" departSpeed="max"/>
    <flow id="S_W_flow" type="car" route="S_W" begin="0" end="3600" vehsPerHour="46" departLane="best" departSpeed="max"/>
    <flow id="S_E_flow" type="car" route="S_E" begin="0" end="3600" vehsPerHour="46" departLane="best" departSpeed="max"/>
    <flow id="E_W_flow" type="car" route="E_W" begin="0" end="3600" vehsPerHour="92" departLane="best" departSpeed="max"/>
    <flow id="E_N_flow" type="car" route="E_N" begin="0" end="3600" vehsPerHour="31" departLane="best" departSpeed="max"/>
    <flow id="E_S_flow" type="car" route="E_S" begin="0" end="3600" vehsPerHour="31" departLane="best" departSpeed="max"/>
    <flow id="W_E_flow" type="car" route="W_E" begin="0" end="3600" vehsPerHour="92" departLane="best" departSpeed="max"/>
    <flow id="W_S_flow" type="car" route="W_S" begin="0" end="3600" vehsPerHour="31" departLane="best" departSpeed="max"/>
    <flow id="W_N_flow" type="car" route="W_N" begin="0" end="3600" vehsPerHour="31" departLane="best" departSpeed="max"/>
</routes>
