<?xml version="1.0" encoding="UTF-8"?>
<!-- Generated by scripts/init_data_osm.py - OSM-imported network
     Basler Str. × Obere Riehenstr., Lörrach-Stetten.
     Scenario: medium (681 trips over 3600s,
     randomTrips.py period=2.9s, validate, fringe-factor 5).
     Calibration target: BASt 2023 Zst 8570 peak-hour ≈ 680 veh/h
     (16:00 share = 8.46 % × DTV 8037 Kfz/24h).
     TLS under control: OSM ID 1628110071. -->
<routes xmlns:xsi="http://www.w3.org/2001/XMLSchema-instance" xsi:noNamespaceSchemaLocation="http://sumo.dlr.de/xsd/routes_file.xsd">
    <vType id="veh_passenger" vClass="passenger"/>
    <vehicle id="veh0" type="veh_passenger" depart="0.00">
        <route edges="137464958#0 -149866195#1 1124727533#0 1124727534#0 1124727534#1 773647503#0 773647503#1 -773647503#1 -773647503#0 -1124727534#1"/>
    </vehicle>
    <vehicle id="veh3" type="veh_passenger" depart="8.70">
        <route edges="36985290#0 1290725373 -137464958#1"/>
    </vehicle>
    <vehicle id="veh4" type="veh_passenger" depart="11.60">
        <route edges="-42673587#4 -137474089#1 137474089#0 42673585 42673587#5 1161106478 36985290#0 1290725373 1124727537 1124727538 -1124727538 -1124727537"/>
    </vehicle>
    <vehicle id="veh5" type="veh_passenger" depart="14.50">
        <route edges="-25931296#3 126630184"/>
    </vehicle>
    <vehicle id="veh6" type="veh_passenger" depart="17.40">
        <route edges="-1032031479 -183169793#2 -183169793#1"/>
    </vehicle>
    <vehicle id="veh10" type="veh_passenger" depart="29.00">
        <route edges="31530089 -83288880#1 -83288880#0 878342716 31530088"/>
    </vehicle>
    <vehicle id="veh13" type="veh_passenger" depart="37.70">
        <route edges="-1124727538 -1124727537 -137464958#1"/>
    </vehicle>
    <vehicle id="veh16" type="veh_passenger" depart="46.40">
        <route edges="-773647503#2 773647503#2"/>
    </vehicle>
    <vehicle id="veh18" type="veh_passenger" depart="52.20">
        <route edges="31585976#0 25931296#0"/>
    </vehicle>
    <vehicle id="veh21" type="veh_passenger" depart="60.90">
        <route edges="-25931296#3 -25931296#0 31585976#1 773647502#1 -1161106478 -42673587#6 32500577#0 32500577#1 32500577#3 32500577#4 -32500577#5 -32500577#3"/>
    </vehicle>
    <vehicle id="veh23" type="veh_passenger" depart="66.70">
        <route edges="-1124727538 -1124727537 -149866195#1 -36985290#2 -1161106478 -42673587#6 32500577#0 32500577#1 32500577#3 32500577#4 -32500577#5 -32500577#3 -32500577#1 -32500577#0"/>
    </vehicle>
    <vehicle id="veh24" type="veh_passenger" depart="69.60">
        <route edges="137464958#0 -149866195#1 -36985290#2 -1124727529#2 -773647502#0 -31585976#0 31530089 -83288880#1 -83288880#0 -840714840"/>
    </vehicle>
    <vehicle id="veh31" type="veh_passenger" depart="89.90">
        <route edges="-878342716 878342716 31530088"/>
    </vehicle>
    <vehicle id="veh32" type="veh_passenger" depart="92.80">
        <route edges="31585976#0 31585976#1 773647502#1 -1161106478 -42673587#6 32500577#0 32500577#1 32500577#3 32500577#4"/>
    </vehicle>
    <vehicle id="veh33" type="veh_passenger" depart="95.70">
        <route edges="-25931296#3 -25931296#0 31585976#1 773647502#1 36985290#0 1290725373 1124727537 1124727538 -1124727538 -1124727537"/>
    </vehicle>
    <vehicle id="veh34" type="veh_passenger" depart="98.60">
        <route edges="-32500577#1 -32500577#0 42673587#5 1161106478 -1124727529#2 -773647502#0 -31585976#0"/>
    </vehicle>
    <vehicle id="veh35" type="veh_passenger" depart="101.50">
        <route edges="-25931296#0 31585976#1 773647502#1 36985290#0 1124727533#0 1124727534#0 1124727534#1 773647503#0 773647503#1 773647503#2"/>
    </vehicle>
    <vehicle id="veh36" type="veh_passenger" depart="104.40">
        <route edges="32500577#1 32500577#3 32500577#4 -32500577#5 -32500577#3 -32500577#1 -32500577#0 42673587#5 1161106478 -1161106478 -42673587#6"/>
    </vehicle>
    <vehicle id="veh37" type="veh_passenger" depart="107.30">
        <route edges="137464958#0 -149866195#1 -36985290#2 -1124727529#2 -773647502#0 -31585976#0 31530089 -83288880#1 -83288880#0 -840714840"/>
    </vehicle>
    <vehicle id="veh38" type="veh_passenger" depart="110.20">
        <route edges="773647502#1 36985290#0 1290725373 1124727537 1124727538"/>
    </vehicle>
    <vehicle id="veh40" type="veh_passenger" depart="116.00">
        <route edges="1124727533#0 1124727534#0 1124727534#1 773647503#0 773647503#1 -773647503#1 -773647503#0 -1124727534#1 -1124727534#0 -200606082 -36985290#2 -1124727529#2 -773647502#0 -31585976#0"/>
    </vehicle>
    <vehicle id="veh41" type="veh_passenger" depart="118.90">
        <route edges="1124727534#1 773647503#0 773647503#1 -773647503#1 -773647503#0 -1124727534#1 -1124727534#0 -200606082 -36985290#2 -1124727529#2 -773647502#0 -31585976#0 31530089 59571718"/>
    </vehicle>
    <vehicle id="veh44" type="veh_passenger" depart="127.60">
        <route edges="-1124727538 -1124727537 -149866195#1 -36985290#2 -1161106478"/>
    </vehicle>
    <vehicle id="veh45" type="veh_passenger" depart="130.50">
        <route edges="-1124727538 -1124727537 -149866195#1 -36985290#2 -1124727529#2 -773647502#0 -31585976#0 31585976#0 25931296#0 25931296#1"/>
    </vehicle>
    <vehicle id="veh46" type="veh_passenger" depart="133.40">
        <route edges="25931296#0 -25931296#0 31585976#1 773647502#1 36985290#0 1124727533#0"/>
    </vehicle>
    <vehicle id="veh47" type="veh_passenger" depart="136.30">
        <route edges="-1124727534#1 -1124727534#0 -200606082 -36985290#2 -1124727529#2 -773647502#0 -31585976#0 31530089 -83288880#1 -83288880#0 -840714840"/>
    </vehicle>
    <vehicle id="veh53" type="veh_passenger" depart="153.70">
        <route edges="-1124727538 -1124727537 -149866195#1 1124727533#0 1124727534#0 1124727534#1"/>
    </vehicle>
    <vehicle id="veh55" type="veh_passenger" depart="159.50">
        <route edges="32500577#1 32500577#3 32500577#4 -32500577#5 -32500577#3 -32500577#1 -32500577#0 42673587#5 1161106478 -1124727529#2 -773647502#0 -31585976#0"/>
    </vehicle>
    <vehicle id="veh57" type="veh_passenger" depart="165.30">
        <route edges="773647502#1 -1124727529#2 -773647502#0 -31585976#0 31530089 59571718"/>
    </vehicle>
    <vehicle id="veh58" type="veh_passenger" depart="168.20">
        <route edges="-31585976#0 31585976#0 25931296#0 25931296#1"/>
    </vehicle>
    <vehicle id="veh64" type="veh_passenger" depart="185.60">
        <route edges="32500577#3 32500577#4 -32500577#5 -32500577#3 -32500577#1 -32500577#0 42673587#5 1161106478 36985290#0 1124727533#0 1124727534#0 1124727534#1 773647503#0 773647503#1 35142095#0"/>
    </vehicle>
    <vehicle id="veh65" type="veh_passenger" depart="188.50">
        <route edges="-32500577#0 42673587#5 1161106478 -1124727529#2 -773647502#0 -31585976#0 31585976#0 25931296#0 126630184 -126630184"/>
    </vehicle>
    <vehicle id="veh66" type="veh_passenger" depart="191.40">
        <route edges="32500577#1 32500577#3 32500577#4 -32500577#5 -32500577#3 -32500577#1 -32500577#0 42673587#5 1161106478 36985290#0 1124727533#0 1124727534#0 1124727534#1 773647503#0 773647503#1 773647503#2"/>
    </vehicle>
    <vehicle id="veh67" type="veh_passenger" depart="194.30">
        <route edges="-1124727538 -1124727537 1124727537 1124727538"/>
    </vehicle>
    <vehicle id="veh68" type="veh_passenger" depart="197.20">
        <route edges="-1124727537 -149866195#1 -36985290#2 -1161106478 -42673587#6 32500577#0 32500577#1 32500577#3 32500577#4"/>
    </vehicle>
    <vehicle id="veh71" type="veh_passenger" depart="205.90">
        <route edges="-31530088 -878342716 878342715 83288880#1 59571718"/>
    </vehicle>
    <vehicle id="veh74" type="veh_passenger" depart="214.60">
        <route edges="-200606082 -36985290#2 -1161106478 -42673587#6 -42673587#4"/>
    </vehicle>
    <vehicle id="veh77" type="veh_passenger" depart="223.30">
        <route edges="-1153453441 -183169793#1"/>
    </vehicle>
    <vehicle id="veh80" type="veh_passenger" depart="232.00">
        <route edges="-1124727537 -149866195#1 -36985290#2 -1124727529#2 -773647502#0 -31585976#0 31585976#0 25931296#0 25931296#1"/>
    </vehicle>
    <vehicle id="veh81" type="veh_passenger" depart="234.90">
        <route edges="-25931296#3 -25931296#0 -31585976#0 31530089 59571718"/>
    </vehicle>
    <vehicle id="veh82" type="veh_passenger" depart="237.80">
        <route edges="31585976#1 773647502#1 36985290#0 1290725373 -137464958#1"/>
    </vehicle>
    <vehicle id="veh84" type="veh_passenger" depart="243.60">
        <route edges="-25931296#3 -25931296#0 31585976#1 773647502#1 -1161106478 -42673587#6 -42673587#4 -137474089#1"/>
    </vehicle>
    <vehicle id="veh86" type="veh_passenger" depart="249.40">
        <route edges="-773647502#0 -31585976#0 31585976#0 31585976#1 773647502#1 -1161106478 -42673587#6 32500577#0 32500577#1 32500577#3 32500577#4"/>
    </vehicle>
    <vehicle id="veh88" type="veh_passenger" depart="255.20">
        <route edges="-1124727538 -1124727537 -149866195#1 1124727533#0 1124727534#0"/>
    </vehicle>
    <vehicle id="veh89" type="veh_passenger" depart="258.10">
        <route edges="-42673587#6 42673587#5 1161106478 36985290#0 1290725373 1124727537 1124727538"/>
    </vehicle>
    <vehicle id="veh92" type="veh_passenger" depart="266.80">
        <route edges="-35142095#1 -773647503#1"/>
    </vehicle>
    <vehicle id="veh93" type="veh_passenger" depart="269.70">
        <route edges="31585976#1 773647502#1 36985290#0 1124727533#0 1124727534#0 1124727534#1 773647503#0 773647503#1 -773647503#1 -773647503#0 -1124727534#1 -1124727534#0 -200606082"/>
    </vehicle>
    <vehicle id="veh95" type="veh_passenger" depart="275.50">
        <route edges="-42673587#4 -137474089#1 137474089#0 42673585 32500577#0 32500577#1 32500577#3 32500577#4 -32500577#5 -32500577#3 -32500577#1 -32500577#0"/>
    </vehicle>
    <vehicle id="veh96" type="veh_passenger" depart="278.40">
        <route edges="-25931296#3 -25931296#0 31585976#1 773647502#1 36985290#0 1124727533#0 1124727534#0 1124727534#1 773647503#0"/>
    </vehicle>
    <vehicle id="veh103" type="veh_passenger" depart="298.70">
        <route edges="-35142095#1 -773647503#1 -773647503#0 -1124727534#1 -1124727534#0 -200606082 -36985290#2 -1124727529#2 -773647502#0 -31585976#0 31585976#0 25931296#0 126630184 -126630184"/>
    </vehicle>
    <vehicle id="veh104" type="veh_passenger" depart="301.60">
        <route edges="-35142095#1 -773647503#1 -773647503#0 -1124727534#1 -1124727534#0 -200606082 -36985290#2 -1124727529#2 -773647502#0 -31585976#0 31530089 -83288880#1 -83288880#0 878342715"/>
    </vehicle>
    <vehicle id="veh107" type="veh_passenger" depart="310.30">
        <route edges="840714840 878342716"/>
    </vehicle>
    <vehicle id="veh113" type="veh_passenger" depart="327.70">
        <route edges="-773647503#2 -773647503#1 -773647503#0 -1124727534#1 -1124727534#0 -200606082 -36985290#2 -1161106478 -42673587#6 -42673587#4 -137474089#1 137474089#0 42673585"/>
    </vehicle>
    <vehicle id="veh116" type="veh_passenger" depart="336.40">
        <route edges="1161106478 -1124727529#2 -773647502#0 -31585976#0 31530089 -83288880#1 -83288880#0 878342716 31530088"/>
    </vehicle>
    <vehicle id="veh117" type="veh_passenger" depart="339.30">
        <route edges="-25931296#3 -25931296#0 31585976#1 773647502#1 -1161106478 -42673587#6 -42673587#4 -137474089#1"/>
    </vehicle>
    <vehicle id="veh118" type="veh_passenger" depart="342.20">
        <route edges="36985290#0 1124727533#0 1124727534#0 1124727534#1 773647503#0 773647503#1 -773647503#1 -773647503#0 -1124727534#1 -1124727534#0 -200606082"/>
    </vehicle>
    <vehicle id="veh119" type="veh_passenger" depart="345.10">
        <route edges="1161106478 -1124727529#2 -773647502#0 -31585976#0 31585976#0 25931296#0 25931296#1"/>
    </vehicle>
    <vehicle id="veh121" type="veh_passenger" depart="350.90">
        <route edges="-773647503#2 773647503#2"/>
    </vehicle>
    <vehicle id="veh122" type="veh_passenger" depart="353.80">
        <route edges="-25931296#0 -31585976#0 31530089"/>
    </vehicle>
    <vehicle id="veh123" type="veh_passenger" depart="356.70">
        <route edges="-25931296#3 -25931296#0 -31585976#0 31530089 -83288880#1 -83288880#0 -840714840"/>
    </vehicle>
    <vehicle id="veh124" type="veh_passenger" depart="359.60">
        <route edges="137474089#0 42673585 42673587#5 1161106478 36985290#0 -36985290#2"/>
    </vehicle>
    <vehicle id="veh125" type="veh_passenger" depart="362.50">
        <route edges="-32500577#1 -32500577#0 32500577#0 32500577#1 32500577#3"/>
    </vehicle>
    <vehicle id="veh126" type="veh_passenger" depart="365.40">
        <route edges="-1124727537 1124727537 1124727538"/>
    </vehicle>
    <vehicle id="veh127" type="veh_passenger" depart="368.30">
        <route edges="878342716"/>
    </vehicle>
    <vehicle id="veh130" type="veh_passenger" depart="377.00">
        <route edges="32500577#3 32500577#4 -32500577#5 -32500577#3 -32500577#1 -32500577#0 42673587#5 1161106478 -1124727529#2 -773647502#0 -31585976#0 31530089 59571718"/>
    </vehicle>
    <vehicle id="veh132" type="veh_passenger" depart="382.80">
        <route edges="31585976#0 -31585976#0 31530089 -83288880#1 -83288880#0 878342716 31530088"/>
    </vehicle>
    <vehicle id="veh133" type="veh_passenger" depart="385.70">
        <route edges="1290725373 -149866195#1 -36985290#2 -1124727529#2 -773647502#0 -31585976#0 31530089 -83288880#1 -83288880#0 878342715"/>
    </vehicle>
    <vehicle id="veh134" type="veh_passenger" depart="388.60">
        <route edges="137464958#0 -149866195#1 -36985290#2 -1124727529#2"/>
    </vehicle>
    <vehicle id="veh135" type="veh_passenger" depart="391.50">
        <route edges="31585976#0 31585976#1 773647502#1 36985290#0 -36985290#2"/>
    </vehicle>
    <vehicle id="veh136" type="veh_passenger" depart="394.40">
        <route edges="137474089#0 42673585 42673587#5 1161106478 36985290#0 1124727533#0 1124727534#0 1124727534#1 773647503#0 773647503#1 773647503#2"/>
    </vehicle>
    <vehicle id="veh137" type="veh_passenger" depart="397.30">
        <route edges="-126630184 -25931296#0 31585976#1 773647502#1 -1161106478 -42673587#6 -42673587#4 -137474089#1"/>
    </vehicle>
    <vehicle id="veh141" type="veh_passenger" depart="408.90">
        <route edges="137464958#0 -149866195#1 -36985290#2 -1124727529#2 -773647502#0 -31585976#0"/>
    </vehicle>
    <vehicle id="veh142" type="veh_passenger" depart="411.80">
        <route edges="-773647503#1 -773647503#0 -1124727534#1 -1124727534#0 -200606082 -36985290#2 -1124727529#2 -773647502#0 -31585976#0 31530089 59571718"/>
    </vehicle>
    <vehicle id="veh143" type="veh_passenger" depart="414.70">
        <route edges="31585976#0 31585976#1 773647502#1 36985290#0 1290725373 -137464958#1"/>
    </vehicle>
    <vehicle id="veh144" type="veh_passenger" depart="417.60">
        <route edges="-42673587#6 32500577#0 32500577#1 32500577#3 32500577#4 -32500577#5 -32500577#3 -32500577#1 -32500577#0"/>
    </vehicle>
    <vehicle id="veh146" type="veh_passenger" depart="423.40">
        <route edges="137464958#0 -149866195#1 -36985290#2 -1124727529#2 -773647502#0 -31585976#0 31585976#0 25931296#0 -25931296#0"/>
    </vehicle>
    <vehicle id="veh148" type="veh_passenger" depart="429.20">
        <route edges="-42673587#6 42673587#5 1161106478 36985290#0 1124727533#0 1124727534#0 1124727534#1 773647503#0 773647503#1 -773647503#1 -773647503#0 -1124727534#1 -1124727534#0"/>
    </vehicle>
    <vehicle id="veh149" type="veh_passenger" depart="432.10">
        <route edges="-1124727538 -1124727537 -149866195#1 -36985290#2 -1124727529#2 -773647502#0 -31585976#0 31530089 59571718"/>
    </vehicle>
    <vehicle id="veh153" type="veh_passenger" depart="443.70">
        <route edges="-32500577#0 42673587#5 1161106478 -1124727529#2 -773647502#0 -31585976#0 31530089 59571718"/>
    </vehicle>
    <vehicle id="veh154" type="veh_passenger" depart="446.60">
        <route edges="25931296#0 -25931296#0 31585976#1 773647502#1 -1161106478 -42673587#6 42673587#5"/>
    </vehicle>
    <vehicle id="veh156" type="veh_passenger" depart="452.40">
        <route edges="-25931296#3 -25931296#0 31585976#1 773647502#1 -1161106478 -42673587#6 -42673587#4 -137474089#1"/>
    </vehicle>
    <vehicle id="veh158" type="veh_passenger" depart="458.20">
        <route edges="-35142095#1 -773647503#1 -773647503#0 -1124727534#1 -1124727534#0 -200606082 -36985290#2 -1124727529#2 -773647502#0 -31585976#0 31585976#0 25931296#0 25931296#1"/>
    </vehicle>
    <vehicle id="veh160" type="veh_passenger" depart="464.00">
        <route edges="32500577#0 32500577#1 32500577#3 32500577#4 -32500577#5 -32500577#3 -32500577#1 -32500577#0 42673587#5 1161106478 -1124727529#2 -773647502#0 -31585976#0 31530089 -83288880#1 -83288880#0 878342715 83288880#1"/>
    </vehicle>
    <vehicle id="veh161" type="veh_passenger" depart="466.90">
        <route edges="31530089 59571718"/>
    </vehicle>
    <vehicle id="veh163" type="veh_passenger" depart="472.70">
        <route edges="-32500577#5 -32500577#3 -32500577#1 -32500577#0 42673587#5 1161106478 36985290#0 1124727533#0 1124727534#0 1124727534#1 773647503#0 773647503#1"/>
    </vehicle>
    <vehicle id="veh167" type="veh_passenger" depart="484.30">
        <route edges="32500577#1 32500577#3 32500577#4 -32500577#5 -32500577#3 -32500577#1 -32500577#0 42673587#5"/>
    </vehicle>
    <vehicle id="veh168" type="veh_passenger" depart="487.20">
        <route edges="-25931296#3 -25931296#0 31585976#1 773647502#1 36985290#0 1124727533#0 1124727534#0 1124727534#1 773647503#0 773647503#1 35142095#0"/>
    </vehicle>
    <vehicle id="veh172" type="veh_passenger" depart="498.80">
        <route edges="-32500577#5 -32500577#3 -32500577#1 -32500577#0 42673587#5"/>
    </vehicle>
    <vehicle id="veh174" type="veh_passenger" depart="504.60">
        <route edges="137464958#0 -149866195#1 -36985290#2 -1124727529#2 -773647502#0 -31585976#0 31530089 -83288880#1 -83288880#0 -840714840"/>
    </vehicle>
    <vehicle id="veh179" type="veh_passenger" depart="519.10">
        <route edges="-1124727538 -1124727537 -149866195#1 1124727533#0 1124727534#0 1124727534#1"/>
    </vehicle>
    <vehicle id="veh181" type="veh_passenger" depart="524.90">
        <route edges="126630184 -126630184 -25931296#0 31585976#1 773647502#1 36985290#0 1290725373"/>
    </vehicle>
    <vehicle id="veh183" type="veh_passenger" depart="530.70">
        <route edges="-31530088 -878342716 878342716 31530088"/>
    </vehicle>
    <vehicle id="veh187" type="veh_passenger" depart="542.30">
        <route edges="-32500577#5 -32500577#3 -32500577#1 -32500577#0 42673587#5 1161106478 36985290#0 1290725373 -137464958#1"/>
    </vehicle>
    <vehicle id="veh188" type="veh_passenger" depart="545.20">
        <route edges="137474089#0 42673585 42673587#5 1161106478 -1124727529#2 -773647502#0"/>
    </vehicle>
    <vehicle id="veh189" type="veh_passenger" depart="548.10">
        <route edges="-32500577#1 -32500577#0 -42673587#4 -137474089#1 137474089#0 42673585"/>
    </vehicle>
    <vehicle id="veh191" type="veh_passenger" depart="553.90">
        <route edges="-32500577#1 -32500577#0 42673587#5 1161106478 -1124727529#2 -773647502#0 -31585976#0 31530089 -83288880#1 -83288880#0 878342716 31530088 -31530088 -878342716"/>
    </vehicle>
    <vehicle id="veh192" type="veh_passenger" depart="556.80">
        <route edges="-35142095#1 -773647503#1 -773647503#0 -1124727534#1 -1124727534#0 -200606082 -36985290#2 -1161106478 -42673587#6 32500577#0 32500577#1 32500577#3 32500577#4 -32500577#5 -32500577#3"/>
    </vehicle>
    <vehicle id="veh193" type="veh_passenger" depart="559.70">
        <route edges="-1161106478 -42673587#6 42673587#5 1161106478 36985290#0 1124727533#0"/>
    </vehicle>
    <vehicle id="veh194" type="veh_passenger" depart="562.60">
        <route edges="83288880#1 -83288880#1 -83288880#0 878342716 31530088"/>
    </vehicle>
    <vehicle id="veh195" type="veh_passenger" depart="565.50">
        <route edges="42673587#5 1161106478 -1124727529#2 -773647502#0 -31585976#0 31585976#0 25931296#0"/>
    </vehicle>
    <vehicle id="veh199" type="veh_passenger" depart="577.10">
        <route edges="137464958#0 1124727537 1124727538"/>
    </vehicle>
    <vehicle id="veh201" type="veh_passenger" depart="582.90">
        <route edges="-773647502#0 -31585976#0 31530089 59571718"/>
    </vehicle>
    <vehicle id="veh203" type="veh_passenger" depart="588.70">
        <route edges="-1124727538 -1124727537 -149866195#1 1290725373"/>
    </vehicle>
    <vehicle id="veh204" type="veh_passenger" depart="591.60">
        <route edges="137464958#0 -149866195#1 1124727533#0 1124727534#0 1124727534#1 773647503#0 773647503#1 -773647503#1 -773647503#0"/>
    </vehicle>
    <vehicle id="veh205" type="veh_passenger" depart="594.50">
        <route edges="31585976#0 31585976#1 773647502#1 -1161106478 -42673587#6 32500577#0 32500577#1 32500577#3"/>
    </vehicle>
    <vehicle id="veh207" type="veh_passenger" depart="600.30">
        <route edges="-200606082 1124727533#0 1124727534#0 1124727534#1 773647503#0 773647503#1 -773647503#1 -773647503#0 -1124727534#1"/>
    </vehicle>
    <vehicle id="veh208" type="veh_passenger" depart="603.20">
        <route edges="-25931296#3 -25931296#0 31585976#1 773647502#1 36985290#0 1290725373 1124727537 1124727538"/>
    </vehicle>
    <vehicle id="veh209" type="veh_passenger" depart="606.10">
        <route edges="31585976#0 31585976#1 773647502#1 36985290#0 1290725373 -137464958#1"/>
    </vehicle>
    <vehicle id="veh210" type="veh_passenger" depart="609.00">
        <route edges="-36985290#2 -1124727529#2 -773647502#0 -31585976#0 31585976#0 25931296#0 25931296#1"/>
    </vehicle>
    <vehicle id="veh213" type="veh_passenger" depart="617.70">
        <route edges="137464958#0 -149866195#1 -36985290#2 -1124727529#2"/>
    </vehicle>
    <vehicle id="veh215" type="veh_passenger" depart="623.50">
        <route edges="-1124727538 -1124727537 -149866195#1 1124727533#0 1124727534#0"/>
    </vehicle>
    <vehicle id="veh217" type="veh_passenger" depart="629.30">
        <route edges="-773647503#2 -773647503#1 -773647503#0 -1124727534#1 -1124727534#0 -200606082 -36985290#2 -1161106478"/>
    </vehicle>
    <vehicle id="veh218" type="veh_passenger" depart="632.20">
        <route edges="-25931296#3 -25931296#0 31585976#1 773647502#1 -1161106478 -42673587#6 -42673587#4 -137474089#1 137474089#0 42673585"/>
    </vehicle>
    <vehicle id="veh220" type="veh_passenger" depart="638.00">
        <route edges="137474089#0 42673585 42673587#5 1161106478 -1124727529#2 -773647502#0 -31585976#0 31530089 -83288880#1 -83288880#0 878342715"/>
    </vehicle>
    <vehicle id="veh221" type="veh_passenger" depart="640.90">
        <route edges="1161106478 36985290#0 1124727533#0 1124727534#0 1124727534#1 773647503#0 773647503#1 773647503#2"/>
    </vehicle>
    <vehicle id="veh222" type="veh_passenger" depart="643.80">
        <route edges="36985290#0 -36985290#2 -1124727529#2 -773647502#0 -31585976#0 31585976#0 25931296#0"/>
    </vehicle>
    <vehicle id="veh225" type="veh_passenger" depart="652.50">
        <route edges="42673585 32500577#0 32500577#1"/>
    </vehicle>
    <vehicle id="veh226" type="veh_passenger" depart="655.40">
        <route edges="-773647502#0 -31585976#0 31585976#0 25931296#0 -25931296#0"/>
    </vehicle>
    <vehicle id="veh227" type="veh_passenger" depart="658.30">
        <route edges="-25931296#3 25931296#1"/>
    </vehicle>
    <vehicle id="veh229" type="veh_passenger" depart="664.10">
        <route edges="137464958#0 -149866195#1 -36985290#2 -1161106478 -42673587#6 32500577#0 32500577#1 32500577#3 32500577#4 -32500577#5 -32500577#3 -32500577#1 -32500577#0"/>
    </vehicle>
    <vehicle id="veh230" type="veh_passenger" depart="667.00">
        <route edges="-1124727538 -1124727537 -149866195#1 -36985290#2 -1161106478 -42673587#6 32500577#0 32500577#1 32500577#3 32500577#4 -32500577#5 -32500577#3 -32500577#1"/>
    </vehicle>
    <vehicle id="veh233" type="veh_passenger" depart="675.70">
        <route edges="-25931296#3 -25931296#0 -31585976#0 31530089 -83288880#1 -83288880#0 878342716 31530088"/>
    </vehicle>
    <vehicle id="veh237" type="veh_passenger" depart="687.30">
        <route edges="-42673587#4 -137474089#1 137474089#0 42673585 42673587#5 1161106478 -1124727529#2 -773647502#0 -31585976#0 31530089 59571718"/>
    </vehicle>
    <vehicle id="veh238" type="veh_passenger" depart="690.20">
        <route edges="1124727534#1 773647503#0 773647503#1 -773647503#1 -773647503#0 -1124727534#1 -1124727534#0 -200606082 -36985290#2 -1124727529#2 -773647502#0 -31585976#0 31530089 -83288880#1 -83288880#0 878342716 31530088"/>
    </vehicle>
    <vehicle id="veh239" type="veh_passenger" depart="693.10">
        <route edges="31585976#1 773647502#1 -1161106478 -42673587#6 32500577#0 32500577#1 32500577#3 32500577#4"/>
    </vehicle>
    <vehicle id="veh240" type="veh_passenger" depart="696.00">
        <route edges="-35142095#1 -773647503#1 -773647503#0 -1124727534#1 -1124727534#0 -200606082 -36985290#2 -1124727529#2"/>
    </vehicle>
    <vehicle id="veh241" type="veh_passenger" depart="698.90">
        <route edges="-32500577#5 -32500577#3 -32500577#1 -32500577#0 32500577#0 32500577#1 32500577#3"/>
    </vehicle>
    <vehicle id="veh242" type="veh_passenger" depart="701.80">
        <route edges="31585976#0 31585976#1 773647502#1 36985290#0 1124727533#0 1124727534#0 1124727534#1 773647503#0 773647503#1 773647503#2"/>
    </vehicle>
    <vehicle id="veh243" type="veh_passenger" depart="704.70">
        <route edges="-42673587#4 -137474089#1 137474089#0 42673585 32500577#0 32500577#1 32500577#3"/>
    </vehicle>
    <vehicle id="veh247" type="veh_passenger" depart="716.30">
        <route edges="-32500577#5 -32500577#3 -32500577#1 -32500577#0 42673587#5 1161106478 -1124727529#2 -773647502#0 -31585976#0 31530089 -83288880#1 -83288880#0 878342716 31530088"/>
    </vehicle>
    <vehicle id="veh250" type="veh_passenger" depart="725.00">
        <route edges="137464958#0 1124727537 1124727538 -1124727538 -1124727537"/>
    </vehicle>
    <vehicle id="veh253" type="veh_passenger" depart="733.70">
        <route edges="-126630184 -25931296#0 31585976#1 773647502#1 36985290#0 1290725373 1124727537 1124727538"/>
    </vehicle>
    <vehicle id="veh254" type="veh_passenger" depart="736.60">
        <route edges="-1124727534#0 -200606082 -36985290#2 -1124727529#2 -773647502#0 -31585976#0 31530089 -83288880#1 -83288880#0 -840714840"/>
    </vehicle>
    <vehicle id="veh255" type="veh_passenger" depart="739.50">
        <route edges="-25931296#3 -25931296#0 31585976#1 773647502#1 -1124727529#2 -773647502#0"/>
    </vehicle>
    <vehicle id="veh260" type="veh_passenger" depart="754.00">
        <route edges="878342716 31530088 -31530088 -878342716 878342715 83288880#1 -83288880#1 -83288880#0"/>
    </vehicle>
    <vehicle id="veh261" type="veh_passenger" depart="756.90">
        <route edges="137464958#0 -149866195#1 -36985290#2 -1161106478 -42673587#6 32500577#0 32500577#1 32500577#3 32500577#4"/>
    </vehicle>
    <vehicle id="veh262" type="veh_passenger" depart="759.80">
        <route edges="137464958#0 -149866195#1 -36985290#2 -1161106478 -42673587#6 32500577#0 32500577#1 32500577#3"/>
    </vehicle>
    <vehicle id="veh270" type="veh_passenger" depart="783.00">
        <route edges="31585976#0 31585976#1 773647502#1 36985290#0 1124727533#0 1124727534#0 1124727534#1 773647503#0 773647503#1 773647503#2"/>
    </vehicle>
    <vehicle id="veh271" type="veh_passenger" depart="785.90">
        <route edges="-1124727538 -1124727537"/>
    </vehicle>
    <vehicle id="veh272" type="veh_passenger" depart="788.80">
        <route edges="-32500577#1 -32500577#0 42673587#5 1161106478 -1124727529#2 -773647502#0 -31585976#0 31530089 -83288880#1 -83288880#0 878342716 31530088"/>
    </vehicle>
    <vehicle id="veh273" type="veh_passenger" depart="791.70">
        <route edges="840714840 -840714840"/>
    </vehicle>
    <vehicle id="veh275" type="veh_passenger" depart="797.50">
        <route edges="137474089#0 42673585 42673587#5 1161106478 -1124727529#2 -773647502#0 -31585976#0 31585976#0 25931296#0 25931296#1"/>
    </vehicle>
    <vehicle id="veh276" type="veh_passenger" depart="800.40">
        <route edges="-1124727538 -1124727537 -149866195#1 -36985290#2 -1161106478 -42673587#6 32500577#0 32500577#1 32500577#3 32500577#4"/>
    </vehicle>
    <vehicle id="veh280" type="veh_passenger" depart="812.00">
        <route edges="-42673587#6 42673587#5 1161106478 -1124727529#2 -773647502#0 -31585976#0 31530089 -83288880#1 -83288880#0 -840714840"/>
    </vehicle>
    <vehicle id="veh281" type="veh_passenger" depart="814.90">
        <route edges="-773647503#2 -773647503#1"/>
    </vehicle>
    <vehicle id="veh282" type="veh_passenger" depart="817.80">
        <route edges="31585976#0 31585976#1 773647502#1 36985290#0 1124727533#0 1124727534#0 1124727534#1 773647503#0 773647503#1 35142095#0"/>
    </vehicle>
    <vehicle id="veh283" type="veh_passenger" depart="820.70">
        <route edges="-1124727538 -1124727537 -149866195#1 1124727533#0 1124727534#0 1124727534#1 773647503#0 773647503#1 773647503#2"/>
    </vehicle>
    <vehicle id="veh284" type="veh_passenger" depart="823.60">
        <route edges="137464958#0 -149866195#1 1124727533#0 1124727534#0 1124727534#1 773647503#0 773647503#1 35142095#0"/>
    </vehicle>
    <vehicle id="veh291" type="veh_passenger" depart="843.90">
        <route edges="31585976#0 31585976#1 773647502#1 36985290#0 1290725373 -137464958#1"/>
    </vehicle>
    <vehicle id="veh294" type="veh_passenger" depart="852.60">